gem5 Simulator System.  http://gem5.org
gem5 is copyrighted software; use the --copyright option for details.

gem5 compiled Apr 15 2020 21:04:43
gem5 started Apr 16 2020 14:16:54
gem5 executing on alkaid-desktop, pid 8968
command line: build/RISCV/gem5.opt --debug-flag=MYTRACE -r --stdout-file=simout configs/example/se.py -n 1 --caches --cpu-type=TimingSimpleCPU --mem-size=2GB --mem-channels=1 -c ./458.sjeng/exe/sjeng_base.amd64-m64-gcc41-nn -o ./458.sjeng/data/test/input/test.txt

Global frequency set at 1000000000000 ticks per second
warn: DRAM device capacity (8192 Mbytes) does not match the address range assigned (2048 Mbytes)
0: system.remote_gdb: listening for remote gdb on port 7000
**** REAL SIMULATION ****
info: Entering event queue @ 0.  Starting simulation...
info: Increasing stack size by one page.
info: Increasing stack size by one page.
info: Increasing stack size by one page.
info: Increasing stack size by one page.
info: Increasing stack size by one page.
info: Increasing stack size by one page.
85552655000: system.mem_ctrls: mytrace writeOverhead 41117960000 swap 10 write 944313 3547264
85552655000: system.mem_ctrls: mytrace2 totalAccess 11605096 totalHit 11068284 overflow 0 evictTime 0
168727839000: system.mem_ctrls: mytrace writeOverhead 81815160000 swap 17 write 1879311 123391680
168727839000: system.mem_ctrls: mytrace2 totalAccess 23089072 totalHit 22023031 overflow 0 evictTime 0

Sjeng version SPEC 1.0, Copyright (C) 2000-2005 Gian-Carlo Pascutto

SPEC Workload
419177111000: system.mem_ctrls: mytrace writeOverhead 204346830000 swap 38 write 4694233 123512768
419177111000: system.mem_ctrls: mytrace2 totalAccess 57664199 totalHit 55003794 overflow 0 evictTime 0

info: Increasing stack size by one page.
info: Increasing stack size by one page.
info: Increasing stack size by one page.
  +----+----+----+----+----+----+----+----+
8 | *R |    |    |    | *K | *B |    | *R |
  +----+----+----+----+----+----+----+----+
7 |    |    |    | *N |    | *P | *P |    |
  +----+----+----+----+----+----+----+----+
6 | *P |    |    |    |    |    |    | *P |
  +----+----+----+----+----+----+----+----+
5 |    |    | *P |  P | *P |    |    | *Q |
  +----+----+----+----+----+----+----+----+
4 |  P | *P |    |    |  N |    |    |    |
  +----+----+----+----+----+----+----+----+
3 |    |    |    |  B |    |    |  P |  P |
  +----+----+----+----+----+----+----+----+
2 |    |  P |  Q |    |    |  P |    |    |
  +----+----+----+----+----+----+----+----+
1 |  R |    |    |    |  K |    |    |  R |
  +----+----+----+----+----+----+----+----+

     a    b    c    d    e    f    g    h

EPD: r3kb1r/3n1pp1/p6p/2pPp2q/Pp2N3/3B2PP/1PQ2P2/R3K2R w KQkq - bm d6; id "LCT2-POS-01";

Searching to 10 ply
Opening phase.
info: Increasing stack size by one page.
info: Increasing stack size by one page.
info: Increasing stack size by one page.
Time for move : 1000000
486059327000: system.mem_ctrls: mytrace writeOverhead 236997430000 swap 45 write 5444144 63490432
486059327000: system.mem_ctrls: mytrace2 totalAccess 66876323 totalHit 63790026 overflow 0 evictTime 0
652854127000: system.mem_ctrls: mytrace writeOverhead 318609810000 swap 59 write 7319141 123492416
652854127000: system.mem_ctrls: mytrace2 totalAccess 89905763 totalHit 85758300 overflow 0 evictTime 0
736110413000: system.mem_ctrls: mytrace writeOverhead 359307730000 swap 65 write 8254138 977472
736110413000: system.mem_ctrls: mytrace2 totalAccess 101389805 totalHit 96713032 overflow 0 evictTime 0
info: Increasing stack size by one page.
info: Increasing stack size by one page.
info: Increasing stack size by one page.
info: Increasing stack size by one page.
info: Increasing stack size by one page.
info: Increasing stack size by one page.
info: Increasing stack size by one page.
info: Increasing stack size by one page.
info: Increasing stack size by one page.
info: Increasing stack size by one page.
info: Increasing stack size by one page.
info: Increasing stack size by one page.
info: Increasing stack size by one page.
741418989000: system.mem_ctrls: mytrace writeOverhead 360851265000 swap 65 write 8289105 211328
741418989000: system.mem_ctrls: mytrace2 totalAccess 101820514 totalHit 97120618 overflow 0 evictTime 0
info: Increasing stack size by one page.
info: Increasing stack size by one page.
info: Increasing stack size by one page.
info: Increasing stack size by one page.
info: Increasing stack size by one page.
info: Increasing stack size by one page.
info: Increasing stack size by one page.
info: Increasing stack size by one page.
info: Increasing stack size by one page.
info: Increasing stack size by one page.
info: Increasing stack size by one page.
info: Increasing stack size by one page.
 2 -0.61       108 d6 ??
743354409000: system.mem_ctrls: mytrace writeOverhead 361146990000 swap 108 write 8293887 931072
743354409000: system.mem_ctrls: mytrace2 totalAccess 101885692 totalHit 97170010 overflow 3 evictTime 0
 2 -0.60       257 Qd1 !
 2 -0.48       490 Be2 !
 2 -0.39       615 Be2 Qg6 
info: Increasing stack size by one page.
info: Increasing stack size by one page.
info: Increasing stack size by one page.
info: Increasing stack size by one page.
info: Increasing stack size by one page.
 3 -0.04       949 Be2 !!
 3  0.10      1232 Be2 Qg6 O-O 
info: Increasing stack size by one page.
info: Increasing stack size by one page.
info: Increasing stack size by one page.
info: Increasing stack size by one page.
info: Increasing stack size by one page.
info: Increasing stack size by one page.
info: Increasing stack size by one page.
info: Increasing stack size by one page.
753606387000: system.mem_ctrls: mytrace writeOverhead 362346335000 swap 343 write 8312676 22272
753606387000: system.mem_ctrls: mytrace2 totalAccess 102139828 totalHit 97361426 overflow 49 evictTime 0
 3  0.10      2219 Be2 Qg6 O-O 
info: Increasing stack size by one page.
info: Increasing stack size by one page.
info: Increasing stack size by one page.
info: Increasing stack size by one page.
info: Increasing stack size by one page.
info: Increasing stack size by one page.
info: Increasing stack size by one page.
info: Increasing stack size by one page.
 4 -0.07      3017 Be2 Qg6 O-O Be7 
765560034000: system.mem_ctrls: mytrace writeOverhead 363573055000 swap 830 write 8331476 176751808
765560034000: system.mem_ctrls: mytrace2 totalAccess 102399973 totalHit 97555322 overflow 91 evictTime 0
768568837000: system.mem_ctrls: mytrace writeOverhead 363876625000 swap 995 write 8336188 183355840
768568837000: system.mem_ctrls: mytrace2 totalAccess 102465919 totalHit 97604870 overflow 97 evictTime 0
771904979000: system.mem_ctrls: mytrace writeOverhead 364201830000 swap 1195 write 8340751 39616
771904979000: system.mem_ctrls: mytrace2 totalAccess 102533740 totalHit 97652567 overflow 108 evictTime 0
 4 -0.07      4689 Be2 Qg6 O-O Be7 
774730779000: system.mem_ctrls: mytrace writeOverhead 364514545000 swap 1303 write 8345399 39616
774730779000: system.mem_ctrls: mytrace2 totalAccess 102599179 totalHit 97700364 overflow 120 evictTime 0
778446683000: system.mem_ctrls: mytrace writeOverhead 364810170000 swap 1416 write 8350095 39872
778446683000: system.mem_ctrls: mytrace2 totalAccess 102663882 totalHit 97749659 overflow 128 evictTime 0
 5 -0.16      7202 Be2 Qg6 O-O b3 Qc4 Be7 
799862579000: system.mem_ctrls: mytrace writeOverhead 366682870000 swap 2429 write 8377724 121984
799862579000: system.mem_ctrls: mytrace2 totalAccess 103061335 totalHit 98038561 overflow 186 evictTime 0
info: Increasing stack size by one page.
info: Increasing stack size by one page.
info: Increasing stack size by one page.
info: Increasing stack size by one page.
808769187000: system.mem_ctrls: mytrace writeOverhead 367599055000 swap 2846 write 8391756 22912
808769187000: system.mem_ctrls: mytrace2 totalAccess 103258704 totalHit 98186306 overflow 216 evictTime 0
 5 -0.16     10503 Be2 Qg6 O-O b3 Qc4 Be7 
811618536000: system.mem_ctrls: mytrace writeOverhead 367915720000 swap 2990 write 8396352 68544
811618536000: system.mem_ctrls: mytrace2 totalAccess 103323133 totalHit 98232800 overflow 231 evictTime 0
823342129000: system.mem_ctrls: mytrace writeOverhead 369127420000 swap 3379 write 8414837 181543104
823342129000: system.mem_ctrls: mytrace2 totalAccess 103580482 totalHit 98423965 overflow 279 evictTime 0
825826276000: system.mem_ctrls: mytrace writeOverhead 369427435000 swap 3520 write 8419559 23872
825826276000: system.mem_ctrls: mytrace2 totalAccess 103646502 totalHit 98474362 overflow 287 evictTime 0
info: Increasing stack size by one page.
info: Increasing stack size by one page.
info: Increasing stack size by one page.
info: Increasing stack size by one page.
828353539000: system.mem_ctrls: mytrace writeOverhead 369721790000 swap 3635 write 8424258 56256
828353539000: system.mem_ctrls: mytrace2 totalAccess 103711401 totalHit 98524317 overflow 296 evictTime 0
834094217000: system.mem_ctrls: mytrace writeOverhead 370378115000 swap 4180 write 8433521 56640
834094217000: system.mem_ctrls: mytrace2 totalAccess 103846309 totalHit 98620644 overflow 323 evictTime 0
info: Increasing stack size by one page.
info: Increasing stack size by one page.
info: Increasing stack size by one page.
info: Increasing stack size by one page.
 6 -0.16     15048 Be2 Qg6 O-O b3 <Qc4> <Be7> 
847129544000: system.mem_ctrls: mytrace writeOverhead 371893190000 swap 4887 write 8456834 19904
847129544000: system.mem_ctrls: mytrace2 totalAccess 104170272 totalHit 98863402 overflow 373 evictTime 0
854096940000: system.mem_ctrls: mytrace writeOverhead 372536445000 swap 5133 write 8466016 69376
854096940000: system.mem_ctrls: mytrace2 totalAccess 104304335 totalHit 98957684 overflow 394 evictTime 0
857165613000: system.mem_ctrls: mytrace writeOverhead 372869105000 swap 5356 write 8470646 56128
857165613000: system.mem_ctrls: mytrace2 totalAccess 104374261 totalHit 99006769 overflow 404 evictTime 0
862424380000: system.mem_ctrls: mytrace writeOverhead 373503310000 swap 5682 write 8480021 73536
862424380000: system.mem_ctrls: mytrace2 totalAccess 104505958 totalHit 99102620 overflow 429 evictTime 0
864905181000: system.mem_ctrls: mytrace writeOverhead 373823290000 swap 5830 write 8484734 21184
864905181000: system.mem_ctrls: mytrace2 totalAccess 104570158 totalHit 99149366 overflow 446 evictTime 0
872157734000: system.mem_ctrls: mytrace writeOverhead 374769385000 swap 6186 write 8498936 73536
872157734000: system.mem_ctrls: mytrace2 totalAccess 104763342 totalHit 99291854 overflow 496 evictTime 0
879054084000: system.mem_ctrls: mytrace writeOverhead 375417990000 swap 6695 write 8508211 22912
879054084000: system.mem_ctrls: mytrace2 totalAccess 104901232 totalHit 99390874 overflow 513 evictTime 0
886608187000: system.mem_ctrls: mytrace writeOverhead 376312640000 swap 6921 write 8522062 22208
886608187000: system.mem_ctrls: mytrace2 totalAccess 105089572 totalHit 99531355 overflow 549 evictTime 0
905121435000: system.mem_ctrls: mytrace writeOverhead 378411865000 swap 7639 write 8555125 53120
905121435000: system.mem_ctrls: mytrace2 totalAccess 105532929 totalHit 99867820 overflow 633 evictTime 0
907235171000: system.mem_ctrls: mytrace writeOverhead 378699975000 swap 7721 write 8559918 39680
907235171000: system.mem_ctrls: mytrace2 totalAccess 105595311 totalHit 99917043 overflow 644 evictTime 0
909326358000: system.mem_ctrls: mytrace writeOverhead 378998455000 swap 7860 write 8564691 206272
909326358000: system.mem_ctrls: mytrace2 totalAccess 105659108 totalHit 99966766 overflow 658 evictTime 0
 6 -0.16     28785 Be2 Qg6 O-O b3 <Qc4> <Be7> 
918938277000: system.mem_ctrls: mytrace writeOverhead 379906335000 swap 8224 write 8578618 36416
918938277000: system.mem_ctrls: mytrace2 totalAccess 105855217 totalHit 100113630 overflow 688 evictTime 0
923857638000: system.mem_ctrls: mytrace writeOverhead 380213380000 swap 8394 write 8583248 72320
923857638000: system.mem_ctrls: mytrace2 totalAccess 105922049 totalHit 100163250 overflow 697 evictTime 0
info: Increasing stack size by one page.
info: Increasing stack size by one page.
info: Increasing stack size by one page.
info: Increasing stack size by one page.
info: Increasing stack size by one page.
info: Increasing stack size by one page.
info: Increasing stack size by one page.
info: Increasing stack size by one page.
928211933000: system.mem_ctrls: mytrace writeOverhead 380520585000 swap 8542 write 8587857 23168
928211933000: system.mem_ctrls: mytrace2 totalAccess 105987889 totalHit 100212027 overflow 709 evictTime 0
932686032000: system.mem_ctrls: mytrace writeOverhead 380826930000 swap 8684 write 8592482 73024
932686032000: system.mem_ctrls: mytrace2 totalAccess 106053594 totalHit 100260553 overflow 719 evictTime 0
939826903000: system.mem_ctrls: mytrace writeOverhead 381446285000 swap 9056 write 8601676 145187328
939826903000: system.mem_ctrls: mytrace2 totalAccess 106187165 totalHit 100359111 overflow 740 evictTime 0
942493252000: system.mem_ctrls: mytrace writeOverhead 381745110000 swap 9171 write 8606309 57216
942493252000: system.mem_ctrls: mytrace2 totalAccess 106252465 totalHit 100408416 overflow 750 evictTime 0
952793341000: system.mem_ctrls: mytrace writeOverhead 382367815000 swap 9640 write 8615284 39616
952793341000: system.mem_ctrls: mytrace2 totalAccess 106382777 totalHit 100502699 overflow 775 evictTime 0
961831149000: system.mem_ctrls: mytrace writeOverhead 382960760000 swap 9975 write 8624534 8064
961831149000: system.mem_ctrls: mytrace2 totalAccess 106510671 totalHit 100599591 overflow 794 evictTime 0
971135020000: system.mem_ctrls: mytrace writeOverhead 383589650000 swap 10389 write 8633571 52992
971135020000: system.mem_ctrls: mytrace2 totalAccess 106643354 totalHit 100695079 overflow 818 evictTime 0
975997841000: system.mem_ctrls: mytrace writeOverhead 384169785000 swap 10607 write 8642822 36736
975997841000: system.mem_ctrls: mytrace2 totalAccess 106772221 totalHit 100794826 overflow 840 evictTime 0
989647926000: system.mem_ctrls: mytrace writeOverhead 385465695000 swap 11469 write 8661213 55936
989647926000: system.mem_ctrls: mytrace2 totalAccess 107043177 totalHit 100987082 overflow 882 evictTime 0
991982365000: system.mem_ctrls: mytrace writeOverhead 385756015000 swap 11587 write 8665922 53120
991982365000: system.mem_ctrls: mytrace2 totalAccess 107107852 totalHit 101037533 overflow 891 evictTime 0
995008963000: system.mem_ctrls: mytrace writeOverhead 386080525000 swap 11784 write 8670559 72448
995008963000: system.mem_ctrls: mytrace2 totalAccess 107173986 totalHit 101084569 overflow 904 evictTime 0
 7 -0.09     42444 Be2 Qg6 O-O Nb6 Rfd1 b3 Qd3 Be7 
1009230981000: system.mem_ctrls: mytrace writeOverhead 387640070000 swap 12447 write 8693768 72384
1009230981000: system.mem_ctrls: mytrace2 totalAccess 107498869 totalHit 101321456 overflow 965 evictTime 0
1016238329000: system.mem_ctrls: mytrace writeOverhead 388295910000 swap 13029 write 8703021 23168
1016238329000: system.mem_ctrls: mytrace2 totalAccess 107633916 totalHit 101418005 overflow 991 evictTime 0
1027798385000: system.mem_ctrls: mytrace writeOverhead 389292140000 swap 13916 write 8716801 126384640
1027798385000: system.mem_ctrls: mytrace2 totalAccess 107838397 totalHit 101561826 overflow 1029 evictTime 0
1030716622000: system.mem_ctrls: mytrace writeOverhead 389597815000 swap 14095 write 8721494 53056
1030716622000: system.mem_ctrls: mytrace2 totalAccess 107903897 totalHit 101610724 overflow 1037 evictTime 0
1033696863000: system.mem_ctrls: mytrace writeOverhead 389908090000 swap 14293 write 8726116 69504
1033696863000: system.mem_ctrls: mytrace2 totalAccess 107970433 totalHit 101659836 overflow 1047 evictTime 0
1051056710000: system.mem_ctrls: mytrace writeOverhead 391733850000 swap 14951 write 8754388 183500544
1051056710000: system.mem_ctrls: mytrace2 totalAccess 108353593 totalHit 101947518 overflow 1124 evictTime 0
1056435937000: system.mem_ctrls: mytrace writeOverhead 392328015000 swap 15053 write 8763853 37248
1056435937000: system.mem_ctrls: mytrace2 totalAccess 108478314 totalHit 102042647 overflow 1152 evictTime 0
1061831314000: system.mem_ctrls: mytrace writeOverhead 392935790000 swap 15222 write 8773357 183532224
1061831314000: system.mem_ctrls: mytrace2 totalAccess 108605620 totalHit 102138100 overflow 1174 evictTime 0
info: Increasing stack size by one page.
info: Increasing stack size by one page.
info: Increasing stack size by one page.
info: Increasing stack size by one page.
1064322691000: system.mem_ctrls: mytrace writeOverhead 393226785000 swap 15297 write 8778143 19264
1064322691000: system.mem_ctrls: mytrace2 totalAccess 108668703 totalHit 102187290 overflow 1184 evictTime 0
1068284036000: system.mem_ctrls: mytrace writeOverhead 393577670000 swap 15588 write 8782701 72384
1068284036000: system.mem_ctrls: mytrace2 totalAccess 108739115 totalHit 102234642 overflow 1199 evictTime 0
1074994501000: system.mem_ctrls: mytrace writeOverhead 394178310000 swap 15765 write 8791949 8064
1074994501000: system.mem_ctrls: mytrace2 totalAccess 108859995 totalHit 102323830 overflow 1229 evictTime 0
1093509970000: system.mem_ctrls: mytrace writeOverhead 396033375000 swap 16553 write 8819871 72384
1093509970000: system.mem_ctrls: mytrace2 totalAccess 109236012 totalHit 102599974 overflow 1322 evictTime 0
1096428966000: system.mem_ctrls: mytrace writeOverhead 396350590000 swap 16704 write 8824564 21376
1096428966000: system.mem_ctrls: mytrace2 totalAccess 109300936 totalHit 102647271 overflow 1336 evictTime 0
1114337506000: system.mem_ctrls: mytrace writeOverhead 398478285000 swap 17588 write 8857404 35648
1114337506000: system.mem_ctrls: mytrace2 totalAccess 109753381 totalHit 102986990 overflow 1418 evictTime 0
1116857908000: system.mem_ctrls: mytrace writeOverhead 398783185000 swap 17731 write 8862060 38592
1116857908000: system.mem_ctrls: mytrace2 totalAccess 109819195 totalHit 103036091 overflow 1428 evictTime 0
1119301124000: system.mem_ctrls: mytrace writeOverhead 399091980000 swap 17858 write 8866651 3116608
1119301124000: system.mem_ctrls: mytrace2 totalAccess 109884202 totalHit 103083888 overflow 1442 evictTime 0
1121983514000: system.mem_ctrls: mytrace writeOverhead 399393930000 swap 17968 write 8871334 56000
1121983514000: system.mem_ctrls: mytrace2 totalAccess 109947949 totalHit 103131726 overflow 1454 evictTime 0
1126488651000: system.mem_ctrls: mytrace writeOverhead 399998075000 swap 18279 write 8880713 35520
1126488651000: system.mem_ctrls: mytrace2 totalAccess 110079089 totalHit 103230885 overflow 1473 evictTime 0
1128838837000: system.mem_ctrls: mytrace writeOverhead 400296055000 swap 18342 write 8885368 72448
1128838837000: system.mem_ctrls: mytrace2 totalAccess 110140412 totalHit 103277153 overflow 1490 evictTime 0
1135490698000: system.mem_ctrls: mytrace writeOverhead 401198600000 swap 18667 write 8899495 19264
1135490698000: system.mem_ctrls: mytrace2 totalAccess 110331572 totalHit 103421641 overflow 1525 evictTime 0
1139689371000: system.mem_ctrls: mytrace writeOverhead 401809210000 swap 18937 write 8908938 68288
1139689371000: system.mem_ctrls: mytrace2 totalAccess 110462667 totalHit 103521075 overflow 1551 evictTime 0
1141435535000: system.mem_ctrls: mytrace writeOverhead 402109305000 swap 19073 write 8913678 39616
1141435535000: system.mem_ctrls: mytrace2 totalAccess 110528143 totalHit 103571880 overflow 1565 evictTime 0
1149709517000: system.mem_ctrls: mytrace writeOverhead 403320405000 swap 19601 write 8932417 72448
1149709517000: system.mem_ctrls: mytrace2 totalAccess 110789014 totalHit 103769082 overflow 1612 evictTime 0
1151289999000: system.mem_ctrls: mytrace writeOverhead 403606395000 swap 19711 write 8937181 54528
1151289999000: system.mem_ctrls: mytrace2 totalAccess 110853267 totalHit 103820216 overflow 1621 evictTime 0
1153636619000: system.mem_ctrls: mytrace writeOverhead 403919770000 swap 19853 write 8941786 72640
1153636619000: system.mem_ctrls: mytrace2 totalAccess 110919337 totalHit 103868296 overflow 1633 evictTime 0
1156113068000: system.mem_ctrls: mytrace writeOverhead 404232795000 swap 20030 write 8946434 20864
1156113068000: system.mem_ctrls: mytrace2 totalAccess 110985060 totalHit 103916537 overflow 1645 evictTime 0
1158414865000: system.mem_ctrls: mytrace writeOverhead 404528070000 swap 20139 write 8951124 19200
1158414865000: system.mem_ctrls: mytrace2 totalAccess 111048927 totalHit 103965415 overflow 1656 evictTime 0
1162969259000: system.mem_ctrls: mytrace writeOverhead 405139070000 swap 20435 write 8960503 183500416
1162969259000: system.mem_ctrls: mytrace2 totalAccess 111179282 totalHit 104063593 overflow 1681 evictTime 0
1165337413000: system.mem_ctrls: mytrace writeOverhead 405443820000 swap 20563 write 8965196 69312
1165337413000: system.mem_ctrls: mytrace2 totalAccess 111244725 totalHit 104112844 overflow 1693 evictTime 0
1167560865000: system.mem_ctrls: mytrace writeOverhead 405748860000 swap 20712 write 8969890 56832
1167560865000: system.mem_ctrls: mytrace2 totalAccess 111309106 totalHit 104160667 overflow 1702 evictTime 0
1170019985000: system.mem_ctrls: mytrace writeOverhead 406061340000 swap 20848 write 8974576 183516416
1170019985000: system.mem_ctrls: mytrace2 totalAccess 111374848 totalHit 104209634 overflow 1718 evictTime 0
1174579046000: system.mem_ctrls: mytrace writeOverhead 406673535000 swap 21128 write 8983938 56064
1174579046000: system.mem_ctrls: mytrace2 totalAccess 111504990 totalHit 104307563 overflow 1746 evictTime 0
1176976246000: system.mem_ctrls: mytrace writeOverhead 406972165000 swap 21184 write 8988632 39616
1176976246000: system.mem_ctrls: mytrace2 totalAccess 111568225 totalHit 104354668 overflow 1754 evictTime 0
1179245930000: system.mem_ctrls: mytrace writeOverhead 407271385000 swap 21284 write 8993336 8000
1179245930000: system.mem_ctrls: mytrace2 totalAccess 111633014 totalHit 104404137 overflow 1766 evictTime 0
1185463310000: system.mem_ctrls: mytrace writeOverhead 408165370000 swap 21693 write 9007514 19200
1185463310000: system.mem_ctrls: mytrace2 totalAccess 111829051 totalHit 104554874 overflow 1794 evictTime 0
1188283885000: system.mem_ctrls: mytrace writeOverhead 408468935000 swap 21772 write 9012114 56064
1188283885000: system.mem_ctrls: mytrace2 totalAccess 111891051 totalHit 104600381 overflow 1809 evictTime 0
1191398143000: system.mem_ctrls: mytrace writeOverhead 408775935000 swap 21852 write 9016793 59712
1191398143000: system.mem_ctrls: mytrace2 totalAccess 111954061 totalHit 104646796 overflow 1823 evictTime 0
 7 -0.09     74507 Be2 Qg6 O-O Nb6 Rfd1 b3 Qd3 Be7 
info: Increasing stack size by one page.
info: Increasing stack size by one page.
info: Increasing stack size by one page.
info: Increasing stack size by one page.
info: Increasing stack size by one page.
info: Increasing stack size by one page.
info: Increasing stack size by one page.
info: Increasing stack size by one page.
info: Increasing stack size by one page.
info: Increasing stack size by one page.
info: Increasing stack size by one page.
info: Increasing stack size by one page.
info: Increasing stack size by one page.
info: Increasing stack size by one page.
info: Increasing stack size by one page.
info: Increasing stack size by one page.
1200552202000: system.mem_ctrls: mytrace writeOverhead 409695655000 swap 22055 write 9030749 53952
1200552202000: system.mem_ctrls: mytrace2 totalAccess 112144414 totalHit 104786091 overflow 1860 evictTime 0
1203726093000: system.mem_ctrls: mytrace writeOverhead 410017495000 swap 22252 write 9035407 69440
1203726093000: system.mem_ctrls: mytrace2 totalAccess 112211804 totalHit 104834484 overflow 1870 evictTime 0
1206493342000: system.mem_ctrls: mytrace writeOverhead 410327895000 swap 22358 write 9040166 36736
1206493342000: system.mem_ctrls: mytrace2 totalAccess 112278277 totalHit 104884069 overflow 1881 evictTime 0
1208954195000: system.mem_ctrls: mytrace writeOverhead 410620970000 swap 22451 write 9044718 68416
1208954195000: system.mem_ctrls: mytrace2 totalAccess 112342312 totalHit 104932337 overflow 1891 evictTime 0
1215556294000: system.mem_ctrls: mytrace writeOverhead 411235875000 swap 22713 write 9053919 23936
1215556294000: system.mem_ctrls: mytrace2 totalAccess 112472786 totalHit 105027903 overflow 1913 evictTime 0
1222770877000: system.mem_ctrls: mytrace writeOverhead 411837600000 swap 23016 write 9063154 68288
1222770877000: system.mem_ctrls: mytrace2 totalAccess 112603465 totalHit 105126114 overflow 1934 evictTime 0
1228315822000: system.mem_ctrls: mytrace writeOverhead 412443010000 swap 23260 write 9072345 53120
1228315822000: system.mem_ctrls: mytrace2 totalAccess 112733489 totalHit 105223010 overflow 1958 evictTime 0
1231050953000: system.mem_ctrls: mytrace writeOverhead 412737410000 swap 23365 write 9076995 69312
1231050953000: system.mem_ctrls: mytrace2 totalAccess 112798944 totalHit 105272532 overflow 1964 evictTime 0
1246095730000: system.mem_ctrls: mytrace writeOverhead 414266925000 swap 24075 write 9100016 22080
1246095730000: system.mem_ctrls: mytrace2 totalAccess 113130285 totalHit 105518354 overflow 2018 evictTime 0
1249018228000: system.mem_ctrls: mytrace writeOverhead 414570510000 swap 24203 write 9104609 20032
1249018228000: system.mem_ctrls: mytrace2 totalAccess 113195991 totalHit 105567190 overflow 2029 evictTime 0
1251871843000: system.mem_ctrls: mytrace writeOverhead 414878465000 swap 24350 write 9109212 56064
1251871843000: system.mem_ctrls: mytrace2 totalAccess 113262323 totalHit 105616055 overflow 2040 evictTime 0
1254514788000: system.mem_ctrls: mytrace writeOverhead 415172185000 swap 24470 write 9113854 35904
1254514788000: system.mem_ctrls: mytrace2 totalAccess 113327361 totalHit 105665606 overflow 2048 evictTime 0
1259976845000: system.mem_ctrls: mytrace writeOverhead 415763430000 swap 24639 write 9123179 56000
1259976845000: system.mem_ctrls: mytrace2 totalAccess 113452634 totalHit 105761337 overflow 2077 evictTime 0
1262737270000: system.mem_ctrls: mytrace writeOverhead 416063020000 swap 24703 write 9127851 39680
1262737270000: system.mem_ctrls: mytrace2 totalAccess 113516125 totalHit 105808673 overflow 2087 evictTime 0
1277287545000: system.mem_ctrls: mytrace writeOverhead 417573390000 swap 25362 write 9151101 19264
1277287545000: system.mem_ctrls: mytrace2 totalAccess 113839589 totalHit 106051184 overflow 2142 evictTime 0
1280027477000: system.mem_ctrls: mytrace writeOverhead 417871500000 swap 25471 write 9155701 22976
1280027477000: system.mem_ctrls: mytrace2 totalAccess 113901681 totalHit 106097482 overflow 2155 evictTime 0
1282918037000: system.mem_ctrls: mytrace writeOverhead 418192855000 swap 25672 write 9160296 56256
1282918037000: system.mem_ctrls: mytrace2 totalAccess 113967949 totalHit 106144808 overflow 2168 evictTime 0
1290142032000: system.mem_ctrls: mytrace writeOverhead 419107495000 swap 26103 write 9174153 72320
1290142032000: system.mem_ctrls: mytrace2 totalAccess 114165959 totalHit 106292282 overflow 2198 evictTime 0
1296109922000: system.mem_ctrls: mytrace writeOverhead 419758815000 swap 26555 write 9183309 23424
1296109922000: system.mem_ctrls: mytrace2 totalAccess 114301025 totalHit 106387556 overflow 2220 evictTime 0
1299185746000: system.mem_ctrls: mytrace writeOverhead 420061240000 swap 26642 write 9187983 69376
1299185746000: system.mem_ctrls: mytrace2 totalAccess 114365173 totalHit 106435398 overflow 2232 evictTime 0
1301773916000: system.mem_ctrls: mytrace writeOverhead 420361030000 swap 26727 write 9192583 39680
1301773916000: system.mem_ctrls: mytrace2 totalAccess 114428702 totalHit 106482779 overflow 2245 evictTime 0
1304823723000: system.mem_ctrls: mytrace writeOverhead 420663725000 swap 26772 write 9197289 68352
1304823723000: system.mem_ctrls: mytrace2 totalAccess 114491727 totalHit 106529454 overflow 2257 evictTime 0
1307325731000: system.mem_ctrls: mytrace writeOverhead 420967135000 swap 26874 write 9201946 39680
1307325731000: system.mem_ctrls: mytrace2 totalAccess 114557018 totalHit 106578442 overflow 2269 evictTime 0
1309587263000: system.mem_ctrls: mytrace writeOverhead 421261065000 swap 27020 write 9206698 35520
1309587263000: system.mem_ctrls: mytrace2 totalAccess 114620880 totalHit 106628406 overflow 2281 evictTime 0
1315084055000: system.mem_ctrls: mytrace writeOverhead 421874250000 swap 27327 write 9215973 55936
1315084055000: system.mem_ctrls: mytrace2 totalAccess 114750866 totalHit 106725201 overflow 2306 evictTime 0
1317520299000: system.mem_ctrls: mytrace writeOverhead 422168935000 swap 27436 write 9220606 39680
1317520299000: system.mem_ctrls: mytrace2 totalAccess 114814040 totalHit 106773270 overflow 2318 evictTime 0
1323158333000: system.mem_ctrls: mytrace writeOverhead 422813765000 swap 27811 write 9229879 19200
1323158333000: system.mem_ctrls: mytrace2 totalAccess 114950546 totalHit 106870811 overflow 2336 evictTime 0
1325566580000: system.mem_ctrls: mytrace writeOverhead 423115295000 swap 27924 write 9234562 72320
1325566580000: system.mem_ctrls: mytrace2 totalAccess 115015548 totalHit 106920042 overflow 2348 evictTime 0
1333430428000: system.mem_ctrls: mytrace writeOverhead 424009315000 swap 28119 write 9248588 19200
1333430428000: system.mem_ctrls: mytrace2 totalAccess 115206411 totalHit 107064046 overflow 2384 evictTime 0
1335673343000: system.mem_ctrls: mytrace writeOverhead 424304730000 swap 28246 write 9253313 68352
1335673343000: system.mem_ctrls: mytrace2 totalAccess 115271893 totalHit 107114951 overflow 2395 evictTime 0
1347758671000: system.mem_ctrls: mytrace writeOverhead 425807555000 swap 28833 write 9276653 183488832
1347758671000: system.mem_ctrls: mytrace2 totalAccess 115597178 totalHit 107361303 overflow 2454 evictTime 0
1352360278000: system.mem_ctrls: mytrace writeOverhead 426392115000 swap 29070 write 9286018 183528576
1352360278000: system.mem_ctrls: mytrace2 totalAccess 115727129 totalHit 107462092 overflow 2475 evictTime 0
1354755717000: system.mem_ctrls: mytrace writeOverhead 426701100000 swap 29217 write 9290643 38272
1354755717000: system.mem_ctrls: mytrace2 totalAccess 115793464 totalHit 107511123 overflow 2486 evictTime 0
1367931241000: system.mem_ctrls: mytrace writeOverhead 428220865000 swap 29866 write 9313846 19968
1367931241000: system.mem_ctrls: mytrace2 totalAccess 116122406 totalHit 107756664 overflow 2536 evictTime 0
1370554151000: system.mem_ctrls: mytrace writeOverhead 428515190000 swap 29946 write 9318445 36544
1370554151000: system.mem_ctrls: mytrace2 totalAccess 116186770 totalHit 107805393 overflow 2547 evictTime 0
1375870230000: system.mem_ctrls: mytrace writeOverhead 429117215000 swap 30113 write 9327713 72384
1375870230000: system.mem_ctrls: mytrace2 totalAccess 116316169 totalHit 107902107 overflow 2570 evictTime 0
1377811028000: system.mem_ctrls: mytrace writeOverhead 429403105000 swap 30199 write 9332470 37824
1377811028000: system.mem_ctrls: mytrace2 totalAccess 116379419 totalHit 107952760 overflow 2584 evictTime 0
1384454998000: system.mem_ctrls: mytrace writeOverhead 430290135000 swap 30541 write 9346508 39360
1384454998000: system.mem_ctrls: mytrace2 totalAccess 116572612 totalHit 108100835 overflow 2616 evictTime 0
1386829030000: system.mem_ctrls: mytrace writeOverhead 430578495000 swap 30599 write 9351130 178981888
1386829030000: system.mem_ctrls: mytrace2 totalAccess 116633173 totalHit 108147000 overflow 2629 evictTime 0
1389241774000: system.mem_ctrls: mytrace writeOverhead 430866450000 swap 30644 write 9355756 23936
1389241774000: system.mem_ctrls: mytrace2 totalAccess 116694584 totalHit 108193846 overflow 2641 evictTime 0
1391550192000: system.mem_ctrls: mytrace writeOverhead 431156705000 swap 30706 write 9360368 38336
1391550192000: system.mem_ctrls: mytrace2 totalAccess 116756487 totalHit 108241113 overflow 2655 evictTime 0
1393980940000: system.mem_ctrls: mytrace writeOverhead 431459540000 swap 30812 write 9365009 69184
1393980940000: system.mem_ctrls: mytrace2 totalAccess 116822043 totalHit 108290026 overflow 2665 evictTime 0
1405740304000: system.mem_ctrls: mytrace writeOverhead 432679665000 swap 31269 write 9383645 39552
1405740304000: system.mem_ctrls: mytrace2 totalAccess 117081066 totalHit 108482927 overflow 2713 evictTime 0
1412669828000: system.mem_ctrls: mytrace writeOverhead 433305765000 swap 31455 write 9392856 36352
1412669828000: system.mem_ctrls: mytrace2 totalAccess 117210172 totalHit 108575708 overflow 2739 evictTime 0
1418486969000: system.mem_ctrls: mytrace writeOverhead 433914200000 swap 31663 write 9402147 183427392
1418486969000: system.mem_ctrls: mytrace2 totalAccess 117340748 totalHit 108672703 overflow 2760 evictTime 0
1423721219000: system.mem_ctrls: mytrace writeOverhead 434504270000 swap 31902 write 9411497 72320
1423721219000: system.mem_ctrls: mytrace2 totalAccess 117471898 totalHit 108773339 overflow 2777 evictTime 0
1429921318000: system.mem_ctrls: mytrace writeOverhead 435121070000 swap 32094 write 9420787 183451584
1429921318000: system.mem_ctrls: mytrace2 totalAccess 117603165 totalHit 108869740 overflow 2800 evictTime 0
1432342411000: system.mem_ctrls: mytrace writeOverhead 435412155000 swap 32207 write 9425481 104208768
1432342411000: system.mem_ctrls: mytrace2 totalAccess 117667893 totalHit 108920106 overflow 2810 evictTime 0
1435075597000: system.mem_ctrls: mytrace writeOverhead 435726445000 swap 32355 write 9430125 19200
1435075597000: system.mem_ctrls: mytrace2 totalAccess 117735470 totalHit 108969763 overflow 2822 evictTime 0
1438564529000: system.mem_ctrls: mytrace writeOverhead 436038380000 swap 32444 write 9434729 56256
1438564529000: system.mem_ctrls: mytrace2 totalAccess 117801361 totalHit 109016924 overflow 2832 evictTime 0
1447867860000: system.mem_ctrls: mytrace writeOverhead 436961795000 swap 32696 write 9448706 23232
1447867860000: system.mem_ctrls: mytrace2 totalAccess 117995464 totalHit 109159483 overflow 2868 evictTime 0
1450442471000: system.mem_ctrls: mytrace writeOverhead 437252820000 swap 32764 write 9453396 72512
1450442471000: system.mem_ctrls: mytrace2 totalAccess 118058968 totalHit 109208318 overflow 2878 evictTime 0
1460189072000: system.mem_ctrls: mytrace writeOverhead 438208305000 swap 33285 write 9467240 183516416
1460189072000: system.mem_ctrls: mytrace2 totalAccess 118262920 totalHit 109355799 overflow 2911 evictTime 0
1464613056000: system.mem_ctrls: mytrace writeOverhead 438793060000 swap 33467 write 9476611 19072
1464613056000: system.mem_ctrls: mytrace2 totalAccess 118391725 totalHit 109455202 overflow 2932 evictTime 0
1475713682000: system.mem_ctrls: mytrace writeOverhead 440006505000 swap 33882 write 9495362 56000
1475713682000: system.mem_ctrls: mytrace2 totalAccess 118650319 totalHit 109649572 overflow 2982 evictTime 0
1478580492000: system.mem_ctrls: mytrace writeOverhead 440310370000 swap 33961 write 9500084 39616
1478580492000: system.mem_ctrls: mytrace2 totalAccess 118714338 totalHit 109697530 overflow 2994 evictTime 0
1487390109000: system.mem_ctrls: mytrace writeOverhead 441229135000 swap 34190 write 9514065 39744
1487390109000: system.mem_ctrls: mytrace2 totalAccess 118905873 totalHit 109838143 overflow 3029 evictTime 0
1489695483000: system.mem_ctrls: mytrace writeOverhead 441519485000 swap 34258 write 9518697 183532800
1489695483000: system.mem_ctrls: mytrace2 totalAccess 118969756 totalHit 109886962 overflow 3038 evictTime 0
1492151482000: system.mem_ctrls: mytrace writeOverhead 441834055000 swap 34425 write 9523379 39808
1492151482000: system.mem_ctrls: mytrace2 totalAccess 119037229 totalHit 109936668 overflow 3049 evictTime 0
1500947730000: system.mem_ctrls: mytrace writeOverhead 442765325000 swap 34779 write 9537397 56768
1500947730000: system.mem_ctrls: mytrace2 totalAccess 119233317 totalHit 110081045 overflow 3085 evictTime 0
1507486538000: system.mem_ctrls: mytrace writeOverhead 443387160000 swap 34923 write 9546734 39808
1507486538000: system.mem_ctrls: mytrace2 totalAccess 119360610 totalHit 110173086 overflow 3110 evictTime 0
1513260954000: system.mem_ctrls: mytrace writeOverhead 444004505000 swap 35192 write 9556005 20288
1513260954000: system.mem_ctrls: mytrace2 totalAccess 119491666 totalHit 110269999 overflow 3134 evictTime 0
1522370518000: system.mem_ctrls: mytrace writeOverhead 444950470000 swap 35553 write 9569977 36736
1522370518000: system.mem_ctrls: mytrace2 totalAccess 119688534 totalHit 110412367 overflow 3170 evictTime 0
1527860823000: system.mem_ctrls: mytrace writeOverhead 445562860000 swap 35713 write 9579358 52928
1527860823000: system.mem_ctrls: mytrace2 totalAccess 119818697 totalHit 110508901 overflow 3192 evictTime 0
1531016277000: system.mem_ctrls: mytrace writeOverhead 445877225000 swap 35789 write 9584014 56640
1531016277000: system.mem_ctrls: mytrace2 totalAccess 119882339 totalHit 110554660 overflow 3207 evictTime 0
1534255256000: system.mem_ctrls: mytrace writeOverhead 446190350000 swap 35908 write 9588708 73088
1534255256000: system.mem_ctrls: mytrace2 totalAccess 119947991 totalHit 110603549 overflow 3224 evictTime 0
1539959073000: system.mem_ctrls: mytrace writeOverhead 446809610000 swap 36103 write 9598033 72320
1539959073000: system.mem_ctrls: mytrace2 totalAccess 120078166 totalHit 110698541 overflow 3245 evictTime 0
1544614004000: system.mem_ctrls: mytrace writeOverhead 447403270000 swap 36368 write 9607428 73088
1544614004000: system.mem_ctrls: mytrace2 totalAccess 120207494 totalHit 110797852 overflow 3266 evictTime 0
1552300319000: system.mem_ctrls: mytrace writeOverhead 448300530000 swap 36649 write 9621462 52928
1552300319000: system.mem_ctrls: mytrace2 totalAccess 120402095 totalHit 110945052 overflow 3297 evictTime 0
1555519574000: system.mem_ctrls: mytrace writeOverhead 448608660000 swap 36818 write 9626139 68608
1555519574000: system.mem_ctrls: mytrace2 totalAccess 120468919 totalHit 110994984 overflow 3307 evictTime 0
1571481039000: system.mem_ctrls: mytrace writeOverhead 450169870000 swap 37509 write 9649273 7936
1571481039000: system.mem_ctrls: mytrace2 totalAccess 120799613 totalHit 111236062 overflow 3362 evictTime 0
1576204674000: system.mem_ctrls: mytrace writeOverhead 450763590000 swap 37699 write 9658638 36672
1576204674000: system.mem_ctrls: mytrace2 totalAccess 120928736 totalHit 111334853 overflow 3385 evictTime 0
1586174589000: system.mem_ctrls: mytrace writeOverhead 451676270000 swap 38132 write 9672643 56000
1586174589000: system.mem_ctrls: mytrace2 totalAccess 121127445 totalHit 111483862 overflow 3413 evictTime 0
1589310067000: system.mem_ctrls: mytrace writeOverhead 452002415000 swap 38369 write 9677268 68672
1589310067000: system.mem_ctrls: mytrace2 totalAccess 121196564 totalHit 111533189 overflow 3423 evictTime 0
1602479555000: system.mem_ctrls: mytrace writeOverhead 453268310000 swap 39044 write 9695824 36672
1602479555000: system.mem_ctrls: mytrace2 totalAccess 121465738 totalHit 111728493 overflow 3464 evictTime 0
1606087628000: system.mem_ctrls: mytrace writeOverhead 453584250000 swap 39168 write 9700426 183483648
1606087628000: system.mem_ctrls: mytrace2 totalAccess 121532053 totalHit 111775952 overflow 3475 evictTime 0
1609145964000: system.mem_ctrls: mytrace writeOverhead 453887685000 swap 39302 write 9705068 56064
1609145964000: system.mem_ctrls: mytrace2 totalAccess 121598237 totalHit 111825381 overflow 3484 evictTime 0
1614328833000: system.mem_ctrls: mytrace writeOverhead 454484350000 swap 39429 write 9714340 72768
1614328833000: system.mem_ctrls: mytrace2 totalAccess 121723483 totalHit 111918793 overflow 3508 evictTime 0
1621061576000: system.mem_ctrls: mytrace writeOverhead 455344605000 swap 39657 write 9728510 39552
1621061576000: system.mem_ctrls: mytrace2 totalAccess 121913564 totalHit 112068304 overflow 3541 evictTime 0
1623693647000: system.mem_ctrls: mytrace writeOverhead 455653755000 swap 39810 write 9733211 183516480
1623693647000: system.mem_ctrls: mytrace2 totalAccess 121979498 totalHit 112118073 overflow 3556 evictTime 0
1631357702000: system.mem_ctrls: mytrace writeOverhead 456542935000 swap 40179 write 9747259 39808
1631357702000: system.mem_ctrls: mytrace2 totalAccess 122172465 totalHit 112265816 overflow 3589 evictTime 0
1633858485000: system.mem_ctrls: mytrace writeOverhead 456844395000 swap 40299 write 9751914 35520
1633858485000: system.mem_ctrls: mytrace2 totalAccess 122237707 totalHit 112315315 overflow 3602 evictTime 0
1645050658000: system.mem_ctrls: mytrace writeOverhead 458068640000 swap 40815 write 9770517 39552
1645050658000: system.mem_ctrls: mytrace2 totalAccess 122499790 totalHit 112509754 overflow 3644 evictTime 0
1654697631000: system.mem_ctrls: mytrace writeOverhead 459249575000 swap 41243 write 9789220 53632
1654697631000: system.mem_ctrls: mytrace2 totalAccess 122757471 totalHit 112706575 overflow 3682 evictTime 0
1657172141000: system.mem_ctrls: mytrace writeOverhead 459542010000 swap 41353 write 9793941 73088
1657172141000: system.mem_ctrls: mytrace2 totalAccess 122821958 totalHit 112756806 overflow 3693 evictTime 0
1663461144000: system.mem_ctrls: mytrace writeOverhead 460187900000 swap 41789 write 9803140 19264
1663461144000: system.mem_ctrls: mytrace2 totalAccess 122957527 totalHit 112853609 overflow 3716 evictTime 0
1665444055000: system.mem_ctrls: mytrace writeOverhead 460473870000 swap 41909 write 9807879 22208
1665444055000: system.mem_ctrls: mytrace2 totalAccess 123021930 totalHit 112904791 overflow 3726 evictTime 0
1674208328000: system.mem_ctrls: mytrace writeOverhead 461381860000 swap 42201 write 9821866 22208
1674208328000: system.mem_ctrls: mytrace2 totalAccess 123215707 totalHit 113049904 overflow 3763 evictTime 0
1676460336000: system.mem_ctrls: mytrace writeOverhead 461676220000 swap 42309 write 9826573 55936
1676460336000: system.mem_ctrls: mytrace2 totalAccess 123279758 totalHit 113099569 overflow 3776 evictTime 0
1678991804000: system.mem_ctrls: mytrace writeOverhead 461965935000 swap 42351 write 9831278 39872
1678991804000: system.mem_ctrls: mytrace2 totalAccess 123341799 totalHit 113147259 overflow 3787 evictTime 0
1683721857000: system.mem_ctrls: mytrace writeOverhead 462553880000 swap 42534 write 9840711 175543744
1683721857000: system.mem_ctrls: mytrace2 totalAccess 123470260 totalHit 113246130 overflow 3807 evictTime 0
1690648907000: system.mem_ctrls: mytrace writeOverhead 463452975000 swap 42932 write 9854819 64144384
1690648907000: system.mem_ctrls: mytrace2 totalAccess 123666924 totalHit 113397017 overflow 3843 evictTime 0
1695246120000: system.mem_ctrls: mytrace writeOverhead 464053760000 swap 43232 write 9864196 72448
1695246120000: system.mem_ctrls: mytrace2 totalAccess 123797246 totalHit 113496413 overflow 3865 evictTime 0
1699801658000: system.mem_ctrls: mytrace writeOverhead 464633210000 swap 43450 write 9873536 69376
1699801658000: system.mem_ctrls: mytrace2 totalAccess 123925353 totalHit 113596024 overflow 3886 evictTime 0
1705325213000: system.mem_ctrls: mytrace writeOverhead 465237555000 swap 43634 write 9882813 36672
1705325213000: system.mem_ctrls: mytrace2 totalAccess 124054307 totalHit 113692296 overflow 3910 evictTime 0
1710725230000: system.mem_ctrls: mytrace writeOverhead 465844720000 swap 43891 write 9892115 55040
1710725230000: system.mem_ctrls: mytrace2 totalAccess 124185963 totalHit 113791159 overflow 3932 evictTime 0
1721876468000: system.mem_ctrls: mytrace writeOverhead 467027155000 swap 44372 write 9910799 22912
1721876468000: system.mem_ctrls: mytrace2 totalAccess 124446989 totalHit 113991043 overflow 3970 evictTime 0
1728688570000: system.mem_ctrls: mytrace writeOverhead 467933755000 swap 44684 write 9924852 72448
1728688570000: system.mem_ctrls: mytrace2 totalAccess 124643802 totalHit 114139425 overflow 4002 evictTime 0
1733760982000: system.mem_ctrls: mytrace writeOverhead 468535960000 swap 44868 write 9934185 39552
1733760982000: system.mem_ctrls: mytrace2 totalAccess 124771523 totalHit 114235257 overflow 4026 evictTime 0
1746645610000: system.mem_ctrls: mytrace writeOverhead 470288730000 swap 45534 write 9962415 35648
1746645610000: system.mem_ctrls: mytrace2 totalAccess 125159283 totalHit 114536647 overflow 4089 evictTime 0
1751736783000: system.mem_ctrls: mytrace writeOverhead 470881555000 swap 45668 write 9971765 23424
1751736783000: system.mem_ctrls: mytrace2 totalAccess 125284217 totalHit 114630875 overflow 4113 evictTime 0
1761672232000: system.mem_ctrls: mytrace writeOverhead 472071690000 swap 46038 write 9990576 127090880
1761672232000: system.mem_ctrls: mytrace2 totalAccess 125541202 totalHit 114826945 overflow 4159 evictTime 0
1764513526000: system.mem_ctrls: mytrace writeOverhead 472381915000 swap 46123 write 9995275 69504
1764513526000: system.mem_ctrls: mytrace2 totalAccess 125605946 totalHit 114874898 overflow 4174 evictTime 0
1776821812000: system.mem_ctrls: mytrace writeOverhead 473853710000 swap 46539 write 10018566 56128
1776821812000: system.mem_ctrls: mytrace2 totalAccess 125923009 totalHit 115116751 overflow 4233 evictTime 0
1791686733000: system.mem_ctrls: mytrace writeOverhead 475882020000 swap 47220 write 10051523 20160
1791686733000: system.mem_ctrls: mytrace2 totalAccess 126371829 totalHit 115466669 overflow 4302 evictTime 0
1793536457000: system.mem_ctrls: mytrace writeOverhead 476172025000 swap 47333 write 10056286 36416
1793536457000: system.mem_ctrls: mytrace2 totalAccess 126436514 totalHit 115517783 overflow 4312 evictTime 0
1801004935000: system.mem_ctrls: mytrace writeOverhead 477059780000 swap 47654 write 10070368 39680
1801004935000: system.mem_ctrls: mytrace2 totalAccess 126629600 totalHit 115665849 overflow 4345 evictTime 0
1806407268000: system.mem_ctrls: mytrace writeOverhead 477659405000 swap 47877 write 10079723 39808
1806407268000: system.mem_ctrls: mytrace2 totalAccess 126760038 totalHit 115764866 overflow 4367 evictTime 0
1815399879000: system.mem_ctrls: mytrace writeOverhead 478830800000 swap 48339 write 10098857 39808
1815399879000: system.mem_ctrls: mytrace2 totalAccess 127019304 totalHit 115967909 overflow 4403 evictTime 0
1817540368000: system.mem_ctrls: mytrace writeOverhead 479120525000 swap 48482 write 10103628 68352
1817540368000: system.mem_ctrls: mytrace2 totalAccess 127084290 totalHit 116019439 overflow 4412 evictTime 0
1822150792000: system.mem_ctrls: mytrace writeOverhead 479700110000 swap 48698 write 10113107 183564800
1822150792000: system.mem_ctrls: mytrace2 totalAccess 127212125 totalHit 116120194 overflow 4436 evictTime 0
1823929778000: system.mem_ctrls: mytrace writeOverhead 479983700000 swap 48816 write 10117870 68608
1823929778000: system.mem_ctrls: mytrace2 totalAccess 127276146 totalHit 116171510 overflow 4445 evictTime 0
1826445390000: system.mem_ctrls: mytrace writeOverhead 480287010000 swap 49016 write 10122541 36352
1826445390000: system.mem_ctrls: mytrace2 totalAccess 127343389 totalHit 116222362 overflow 4452 evictTime 0
1845571803000: system.mem_ctrls: mytrace writeOverhead 482124600000 swap 49835 write 10150617 7808
1845571803000: system.mem_ctrls: mytrace2 totalAccess 127738350 totalHit 116517105 overflow 4515 evictTime 0
1847847823000: system.mem_ctrls: mytrace writeOverhead 482421060000 swap 49961 write 10155343 36352
1847847823000: system.mem_ctrls: mytrace2 totalAccess 127804130 totalHit 116567667 overflow 4523 evictTime 0
1850659126000: system.mem_ctrls: mytrace writeOverhead 482729030000 swap 50103 write 10159995 37760
1850659126000: system.mem_ctrls: mytrace2 totalAccess 127869901 totalHit 116616109 overflow 4532 evictTime 0
1853669685000: system.mem_ctrls: mytrace writeOverhead 483034815000 swap 50205 write 10164685 162706560
1853669685000: system.mem_ctrls: mytrace2 totalAccess 127934795 totalHit 116664668 overflow 4545 evictTime 0
1856907812000: system.mem_ctrls: mytrace writeOverhead 483343430000 swap 50294 write 10169352 36544
1856907812000: system.mem_ctrls: mytrace2 totalAccess 127998110 totalHit 116710891 overflow 4558 evictTime 0
1860023928000: system.mem_ctrls: mytrace writeOverhead 483660420000 swap 50371 write 10174005 22272
1860023928000: system.mem_ctrls: mytrace2 totalAccess 128062525 totalHit 116756927 overflow 4572 evictTime 0
1870409107000: system.mem_ctrls: mytrace writeOverhead 484882285000 swap 50935 write 10192635 182360768
1870409107000: system.mem_ctrls: mytrace2 totalAccess 128327103 totalHit 116955142 overflow 4615 evictTime 0
1876644977000: system.mem_ctrls: mytrace writeOverhead 485490640000 swap 51206 write 10201889 36352
1876644977000: system.mem_ctrls: mytrace2 totalAccess 128455989 totalHit 117050663 overflow 4636 evictTime 0
1879308379000: system.mem_ctrls: mytrace writeOverhead 485793655000 swap 51345 write 10206549 56384
1879308379000: system.mem_ctrls: mytrace2 totalAccess 128520958 totalHit 117099449 overflow 4647 evictTime 0
1885089193000: system.mem_ctrls: mytrace writeOverhead 486395125000 swap 51567 write 10215835 72768
1885089193000: system.mem_ctrls: mytrace2 totalAccess 128648975 totalHit 117195424 overflow 4671 evictTime 0
1887733582000: system.mem_ctrls: mytrace writeOverhead 486698280000 swap 51678 write 10220434 39552
1887733582000: system.mem_ctrls: mytrace2 totalAccess 128713497 totalHit 117243545 overflow 4685 evictTime 0
1890436451000: system.mem_ctrls: mytrace writeOverhead 486998575000 swap 51797 write 10225088 56896
1890436451000: system.mem_ctrls: mytrace2 totalAccess 128777371 totalHit 117291909 overflow 4699 evictTime 0
1895933646000: system.mem_ctrls: mytrace writeOverhead 487609210000 swap 52062 write 10234385 56128
1895933646000: system.mem_ctrls: mytrace2 totalAccess 128908288 totalHit 117389727 overflow 4722 evictTime 0
1898977643000: system.mem_ctrls: mytrace writeOverhead 487920185000 swap 52155 write 10238931 56768
1898977643000: system.mem_ctrls: mytrace2 totalAccess 128972052 totalHit 117435252 overflow 4735 evictTime 0
1907820441000: system.mem_ctrls: mytrace writeOverhead 488832000000 swap 52456 write 10252852 68288
1907820441000: system.mem_ctrls: mytrace2 totalAccess 129166623 totalHit 117579985 overflow 4770 evictTime 0
1913400685000: system.mem_ctrls: mytrace writeOverhead 489435000000 swap 52669 write 10262111 72448
1913400685000: system.mem_ctrls: mytrace2 totalAccess 129296202 totalHit 117676949 overflow 4793 evictTime 0
1921635036000: system.mem_ctrls: mytrace writeOverhead 490344880000 swap 53047 write 10275910 183533056
1921635036000: system.mem_ctrls: mytrace2 totalAccess 129491043 totalHit 117821968 overflow 4829 evictTime 0
1924380132000: system.mem_ctrls: mytrace writeOverhead 490645200000 swap 53152 write 10280555 23360
1924380132000: system.mem_ctrls: mytrace2 totalAccess 129556214 totalHit 117870998 overflow 4840 evictTime 0
1928923458000: system.mem_ctrls: mytrace writeOverhead 491251815000 swap 53402 write 10289889 123664320
1928923458000: system.mem_ctrls: mytrace2 totalAccess 129683057 totalHit 117966264 overflow 4869 evictTime 0
 8 -0.09    175520 Be2 Qg6 O-O Nb6 Rfd1 b3 <Qd3> <Be7> 
1931401958000: system.mem_ctrls: mytrace writeOverhead 491547795000 swap 53539 write 10294582 36544
1931401958000: system.mem_ctrls: mytrace2 totalAccess 129748413 totalHit 118016335 overflow 4876 evictTime 0
1933199732000: system.mem_ctrls: mytrace writeOverhead 491837275000 swap 53690 write 10299323 183427392
1933199732000: system.mem_ctrls: mytrace2 totalAccess 129812644 totalHit 118067134 overflow 4886 evictTime 0
1941087305000: system.mem_ctrls: mytrace writeOverhead 492756445000 swap 54047 write 10313450 69312
1941087305000: system.mem_ctrls: mytrace2 totalAccess 130006045 totalHit 118211913 overflow 4926 evictTime 0
1948129093000: system.mem_ctrls: mytrace writeOverhead 493655420000 swap 54375 write 10327746 72384
1948129093000: system.mem_ctrls: mytrace2 totalAccess 130198529 totalHit 118359494 overflow 4962 evictTime 0
1957433375000: system.mem_ctrls: mytrace writeOverhead 494873785000 swap 54878 write 10346634 3116544
1957433375000: system.mem_ctrls: mytrace2 totalAccess 130456845 totalHit 118553642 overflow 5007 evictTime 0
1959895494000: system.mem_ctrls: mytrace writeOverhead 495180235000 swap 54996 write 10351341 139444928
1959895494000: system.mem_ctrls: mytrace2 totalAccess 130521016 totalHit 118601746 overflow 5021 evictTime 0
1962233024000: system.mem_ctrls: mytrace writeOverhead 495471620000 swap 55119 write 10356061 35456
1962233024000: system.mem_ctrls: mytrace2 totalAccess 130585604 totalHit 118652162 overflow 5031 evictTime 0
1967054596000: system.mem_ctrls: mytrace writeOverhead 496066020000 swap 55313 write 10365414 40256
1967054596000: system.mem_ctrls: mytrace2 totalAccess 130711951 totalHit 118748219 overflow 5057 evictTime 0
1973139746000: system.mem_ctrls: mytrace writeOverhead 496971670000 swap 55740 write 10379508 23360
1973139746000: system.mem_ctrls: mytrace2 totalAccess 130907508 totalHit 118896897 overflow 5092 evictTime 0
1983088805000: system.mem_ctrls: mytrace writeOverhead 498470440000 swap 56475 write 10403045 56000
1983088805000: system.mem_ctrls: mytrace2 totalAccess 131232504 totalHit 119145890 overflow 5149 evictTime 0
1985008538000: system.mem_ctrls: mytrace writeOverhead 498767510000 swap 56654 write 10407831 72384
1985008538000: system.mem_ctrls: mytrace2 totalAccess 131297963 totalHit 119197029 overflow 5158 evictTime 0
1987712592000: system.mem_ctrls: mytrace writeOverhead 499065825000 swap 56793 write 10412532 35648
1987712592000: system.mem_ctrls: mytrace2 totalAccess 131364105 totalHit 119247655 overflow 5167 evictTime 0
1994458216000: system.mem_ctrls: mytrace writeOverhead 499980645000 swap 57390 write 10426636 111826752
1994458216000: system.mem_ctrls: mytrace2 totalAccess 131561531 totalHit 119397113 overflow 5198 evictTime 0
1998015516000: system.mem_ctrls: mytrace writeOverhead 500579745000 swap 57771 write 10435986 183427392
1998015516000: system.mem_ctrls: mytrace2 totalAccess 131694340 totalHit 119498915 overflow 5216 evictTime 0
1999522301000: system.mem_ctrls: mytrace writeOverhead 500869645000 swap 57907 write 10440709 39616
1999522301000: system.mem_ctrls: mytrace2 totalAccess 131759455 totalHit 119550564 overflow 5228 evictTime 0
2000886423000: system.mem_ctrls: mytrace writeOverhead 501153690000 swap 58056 write 10445448 39808
2000886423000: system.mem_ctrls: mytrace2 totalAccess 131824702 totalHit 119602863 overflow 5236 evictTime 0
2012078741000: system.mem_ctrls: mytrace writeOverhead 502666260000 swap 58751 write 10468823 56704
2012078741000: system.mem_ctrls: mytrace2 totalAccess 132149694 totalHit 119847934 overflow 5291 evictTime 0
2015116138000: system.mem_ctrls: mytrace writeOverhead 502983505000 swap 58924 write 10473443 56000
2015116138000: system.mem_ctrls: mytrace2 totalAccess 132213854 totalHit 119893723 overflow 5304 evictTime 0
2023901021000: system.mem_ctrls: mytrace writeOverhead 503894900000 swap 59220 write 10487477 159357504
2023901021000: system.mem_ctrls: mytrace2 totalAccess 132403129 totalHit 120033518 overflow 5337 evictTime 0
2031001081000: system.mem_ctrls: mytrace writeOverhead 504803355000 swap 59760 write 10501545 56064
2031001081000: system.mem_ctrls: mytrace2 totalAccess 132601575 totalHit 120184176 overflow 5365 evictTime 0
2033108232000: system.mem_ctrls: mytrace writeOverhead 505098155000 swap 59908 write 10506246 39808
2033108232000: system.mem_ctrls: mytrace2 totalAccess 132667158 totalHit 120235151 overflow 5376 evictTime 0
2035473059000: system.mem_ctrls: mytrace writeOverhead 505401765000 swap 60061 write 10510880 73600
2035473059000: system.mem_ctrls: mytrace2 totalAccess 132734285 totalHit 120285558 overflow 5385 evictTime 0
2037683136000: system.mem_ctrls: mytrace writeOverhead 505685145000 swap 60171 write 10515584 55040
2037683136000: system.mem_ctrls: mytrace2 totalAccess 132798821 totalHit 120336716 overflow 5393 evictTime 0
2040056718000: system.mem_ctrls: mytrace writeOverhead 505975325000 swap 60331 write 10520289 8000
2040056718000: system.mem_ctrls: mytrace2 totalAccess 132864020 totalHit 120387535 overflow 5400 evictTime 0
2048716467000: system.mem_ctrls: mytrace writeOverhead 507133520000 swap 60796 write 10539265 56832
2048716467000: system.mem_ctrls: mytrace2 totalAccess 133120073 totalHit 120588744 overflow 5441 evictTime 0
2053950856000: system.mem_ctrls: mytrace writeOverhead 507727800000 swap 61049 write 10548629 53056
2053950856000: system.mem_ctrls: mytrace2 totalAccess 133247538 totalHit 120685771 overflow 5463 evictTime 0
2056329179000: system.mem_ctrls: mytrace writeOverhead 508030820000 swap 61152 write 10553352 128437888
2056329179000: system.mem_ctrls: mytrace2 totalAccess 133312314 totalHit 120735057 overflow 5477 evictTime 0
2061226665000: system.mem_ctrls: mytrace writeOverhead 508627575000 swap 61357 write 10562793 69120
2061226665000: system.mem_ctrls: mytrace2 totalAccess 133441912 totalHit 120834344 overflow 5500 evictTime 0
2065589934000: system.mem_ctrls: mytrace writeOverhead 509221275000 swap 61668 write 10572261 69504
2065589934000: system.mem_ctrls: mytrace2 totalAccess 133573101 totalHit 120935476 overflow 5516 evictTime 0
2067945171000: system.mem_ctrls: mytrace writeOverhead 509531665000 swap 61818 write 10576900 56384
2067945171000: system.mem_ctrls: mytrace2 totalAccess 133639506 totalHit 120984573 overflow 5528 evictTime 0
2072539377000: system.mem_ctrls: mytrace writeOverhead 510128765000 swap 62092 write 10586301 151344832
2072539377000: system.mem_ctrls: mytrace2 totalAccess 133771969 totalHit 121086034 overflow 5547 evictTime 0
2077030383000: system.mem_ctrls: mytrace writeOverhead 510707790000 swap 62381 write 10595719 38272
2077030383000: system.mem_ctrls: mytrace2 totalAccess 133902773 totalHit 121188712 overflow 5564 evictTime 0
2079208767000: system.mem_ctrls: mytrace writeOverhead 510993835000 swap 62502 write 10600483 19264
2079208767000: system.mem_ctrls: mytrace2 totalAccess 133966431 totalHit 121239455 overflow 5575 evictTime 0
2081407494000: system.mem_ctrls: mytrace writeOverhead 511289380000 swap 62650 write 10605195 7936
2081407494000: system.mem_ctrls: mytrace2 totalAccess 134030622 totalHit 121288924 overflow 5585 evictTime 0
2088263612000: system.mem_ctrls: mytrace writeOverhead 512164515000 swap 63029 write 10619340 23232
2088263612000: system.mem_ctrls: mytrace2 totalAccess 134221424 totalHit 121436889 overflow 5615 evictTime 0
2090774764000: system.mem_ctrls: mytrace writeOverhead 512467370000 swap 63148 write 10624044 36544
2090774764000: system.mem_ctrls: mytrace2 totalAccess 134286548 totalHit 121486233 overflow 5627 evictTime 0
2108867231000: system.mem_ctrls: mytrace writeOverhead 514560950000 swap 63924 write 10656975 183440576
2108867231000: system.mem_ctrls: mytrace2 totalAccess 134739894 totalHit 121830996 overflow 5700 evictTime 0
2111514150000: system.mem_ctrls: mytrace writeOverhead 514857390000 swap 63979 write 10661581 56000
2111514150000: system.mem_ctrls: mytrace2 totalAccess 134804080 totalHit 121879702 overflow 5715 evictTime 0
2116861464000: system.mem_ctrls: mytrace writeOverhead 515454825000 swap 64162 write 10670783 23872
2116861464000: system.mem_ctrls: mytrace2 totalAccess 134932142 totalHit 121975008 overflow 5736 evictTime 0
2119357994000: system.mem_ctrls: mytrace writeOverhead 515761000000 swap 64256 write 10675399 3116608
2119357994000: system.mem_ctrls: mytrace2 totalAccess 134996481 totalHit 122022780 overflow 5752 evictTime 0
2122226694000: system.mem_ctrls: mytrace writeOverhead 516051430000 swap 64357 write 10680051 39552
2122226694000: system.mem_ctrls: mytrace2 totalAccess 135060074 totalHit 122071390 overflow 5760 evictTime 0
2125169711000: system.mem_ctrls: mytrace writeOverhead 516355230000 swap 64468 write 10684648 36608
2125169711000: system.mem_ctrls: mytrace2 totalAccess 135125049 totalHit 122119941 overflow 5774 evictTime 0
2128465226000: system.mem_ctrls: mytrace writeOverhead 516659750000 swap 64609 write 10689272 69376
2128465226000: system.mem_ctrls: mytrace2 totalAccess 135190516 totalHit 122168874 overflow 5786 evictTime 0
2134333948000: system.mem_ctrls: mytrace writeOverhead 517244840000 swap 64769 write 10698545 183439936
2134333948000: system.mem_ctrls: mytrace2 totalAccess 135317480 totalHit 122265715 overflow 5809 evictTime 0
2137457954000: system.mem_ctrls: mytrace writeOverhead 517547335000 swap 64851 write 10703196 56192
2137457954000: system.mem_ctrls: mytrace2 totalAccess 135382052 totalHit 122314258 overflow 5823 evictTime 0
2141462827000: system.mem_ctrls: mytrace writeOverhead 517849670000 swap 64976 write 10707905 38400
2141462827000: system.mem_ctrls: mytrace2 totalAccess 135446414 totalHit 122362190 overflow 5831 evictTime 0
2147557314000: system.mem_ctrls: mytrace writeOverhead 518446125000 swap 65186 write 10717132 55936
2147557314000: system.mem_ctrls: mytrace2 totalAccess 135574783 totalHit 122459053 overflow 5857 evictTime 0
2153343995000: system.mem_ctrls: mytrace writeOverhead 519046930000 swap 65317 write 10726397 39872
2153343995000: system.mem_ctrls: mytrace2 totalAccess 135700028 totalHit 122552126 overflow 5884 evictTime 0
2156476922000: system.mem_ctrls: mytrace writeOverhead 519350820000 swap 65455 write 10731097 23744
2156476922000: system.mem_ctrls: mytrace2 totalAccess 135765374 totalHit 122601407 overflow 5895 evictTime 0
2182681875000: system.mem_ctrls: mytrace writeOverhead 522075950000 swap 66277 write 10772918 21760
2182681875000: system.mem_ctrls: mytrace2 totalAccess 136340162 totalHit 123028867 overflow 6007 evictTime 0
2185368346000: system.mem_ctrls: mytrace writeOverhead 522373810000 swap 66369 write 10777518 72384
2185368346000: system.mem_ctrls: mytrace2 totalAccess 136404156 totalHit 123076642 overflow 6018 evictTime 0
2193431086000: system.mem_ctrls: mytrace writeOverhead 523266975000 swap 66644 write 10791473 175798016
2193431086000: system.mem_ctrls: mytrace2 totalAccess 136594976 totalHit 123221066 overflow 6056 evictTime 0
2196072140000: system.mem_ctrls: mytrace writeOverhead 523554035000 swap 66682 write 10796218 36544
2196072140000: system.mem_ctrls: mytrace2 totalAccess 136655580 totalHit 123268449 overflow 6070 evictTime 0
2198763316000: system.mem_ctrls: mytrace writeOverhead 523856775000 swap 66790 write 10800860 69376
2198763316000: system.mem_ctrls: mytrace2 totalAccess 136720232 totalHit 123316304 overflow 6079 evictTime 0
2201687770000: system.mem_ctrls: mytrace writeOverhead 524172580000 swap 66915 write 10805448 35520
2201687770000: system.mem_ctrls: mytrace2 totalAccess 136785147 totalHit 123363058 overflow 6095 evictTime 0
2209631192000: system.mem_ctrls: mytrace writeOverhead 525078795000 swap 67215 write 10819377 72512
2209631192000: system.mem_ctrls: mytrace2 totalAccess 136977682 totalHit 123506641 overflow 6130 evictTime 0
2222858748000: system.mem_ctrls: mytrace writeOverhead 526566300000 swap 67706 write 10842478 39552
2222858748000: system.mem_ctrls: mytrace2 totalAccess 137298143 totalHit 123748213 overflow 6189 evictTime 0
2225636028000: system.mem_ctrls: mytrace writeOverhead 526867845000 swap 67789 write 10847068 72448
2225636028000: system.mem_ctrls: mytrace2 totalAccess 137360992 totalHit 123794687 overflow 6203 evictTime 0
2228259268000: system.mem_ctrls: mytrace writeOverhead 527167925000 swap 67864 write 10851675 56064
2228259268000: system.mem_ctrls: mytrace2 totalAccess 137424931 totalHit 123842023 overflow 6214 evictTime 0
2233348269000: system.mem_ctrls: mytrace writeOverhead 527762040000 swap 68050 write 10860922 56064
2233348269000: system.mem_ctrls: mytrace2 totalAccess 137553788 totalHit 123939381 overflow 6237 evictTime 0
2236154369000: system.mem_ctrls: mytrace writeOverhead 528058785000 swap 68135 write 10865534 52928
2236154369000: system.mem_ctrls: mytrace2 totalAccess 137617582 totalHit 123987728 overflow 6251 evictTime 0
2239239287000: system.mem_ctrls: mytrace writeOverhead 528372575000 swap 68274 write 10870174 21440
2239239287000: system.mem_ctrls: mytrace2 totalAccess 137682863 totalHit 124035194 overflow 6264 evictTime 0
2242287106000: system.mem_ctrls: mytrace writeOverhead 528676735000 swap 68355 write 10874848 69376
2242287106000: system.mem_ctrls: mytrace2 totalAccess 137747432 totalHit 124083009 overflow 6275 evictTime 0
2244960066000: system.mem_ctrls: mytrace writeOverhead 528972470000 swap 68425 write 10879506 53120
2244960066000: system.mem_ctrls: mytrace2 totalAccess 137811068 totalHit 124131401 overflow 6288 evictTime 0
2250221251000: system.mem_ctrls: mytrace writeOverhead 529575410000 swap 68612 write 10888734 39872
2250221251000: system.mem_ctrls: mytrace2 totalAccess 137939221 totalHit 124226492 overflow 6311 evictTime 0
2254911281000: system.mem_ctrls: mytrace writeOverhead 530189545000 swap 68887 write 10898143 40128
2254911281000: system.mem_ctrls: mytrace2 totalAccess 138070388 totalHit 124325230 overflow 6337 evictTime 0
2267348650000: system.mem_ctrls: mytrace writeOverhead 531404185000 swap 69348 write 10916757 69440
2267348650000: system.mem_ctrls: mytrace2 totalAccess 138332346 totalHit 124521207 overflow 6382 evictTime 0
2270394046000: system.mem_ctrls: mytrace writeOverhead 531707045000 swap 69437 write 10921369 39616
2270394046000: system.mem_ctrls: mytrace2 totalAccess 138396455 totalHit 124568550 overflow 6394 evictTime 0
2272960580000: system.mem_ctrls: mytrace writeOverhead 532002260000 swap 69503 write 10926015 39552
2272960580000: system.mem_ctrls: mytrace2 totalAccess 138457895 totalHit 124614904 overflow 6409 evictTime 0
2277857834000: system.mem_ctrls: mytrace writeOverhead 532628245000 swap 69726 write 10935357 35584
2277857834000: system.mem_ctrls: mytrace2 totalAccess 138588220 totalHit 124709765 overflow 6434 evictTime 0
2286280022000: system.mem_ctrls: mytrace writeOverhead 533538295000 swap 70031 write 10949394 183397568
2286280022000: system.mem_ctrls: mytrace2 totalAccess 138782637 totalHit 124854738 overflow 6465 evictTime 0
2289093844000: system.mem_ctrls: mytrace writeOverhead 533851210000 swap 70147 write 10954065 69312
2289093844000: system.mem_ctrls: mytrace2 totalAccess 138847741 totalHit 124902470 overflow 6479 evictTime 0
2293262191000: system.mem_ctrls: mytrace writeOverhead 534162245000 swap 70289 write 10958728 37312
2293262191000: system.mem_ctrls: mytrace2 totalAccess 138914443 totalHit 124951726 overflow 6490 evictTime 0
2296685557000: system.mem_ctrls: mytrace writeOverhead 534470490000 swap 70411 write 10963350 56000
2296685557000: system.mem_ctrls: mytrace2 totalAccess 138980797 totalHit 125000260 overflow 6498 evictTime 0
2299739716000: system.mem_ctrls: mytrace writeOverhead 534764800000 swap 70511 write 10968065 21888
2299739716000: system.mem_ctrls: mytrace2 totalAccess 139045517 totalHit 125050151 overflow 6508 evictTime 0
2305117125000: system.mem_ctrls: mytrace writeOverhead 535353835000 swap 70760 write 10977551 19264
2305117125000: system.mem_ctrls: mytrace2 totalAccess 139174922 totalHit 125150956 overflow 6530 evictTime 0
2310598391000: system.mem_ctrls: mytrace writeOverhead 535953580000 swap 70991 write 10987013 56000
2310598391000: system.mem_ctrls: mytrace2 totalAccess 139302396 totalHit 125248071 overflow 6554 evictTime 0
2313726464000: system.mem_ctrls: mytrace writeOverhead 536257805000 swap 71100 write 10991695 55936
2313726464000: system.mem_ctrls: mytrace2 totalAccess 139366570 totalHit 125295876 overflow 6565 evictTime 0
2316612155000: system.mem_ctrls: mytrace writeOverhead 536556920000 swap 71149 write 10996421 36608
2316612155000: system.mem_ctrls: mytrace2 totalAccess 139428933 totalHit 125342877 overflow 6577 evictTime 0
2319431490000: system.mem_ctrls: mytrace writeOverhead 536851650000 swap 71261 write 11001188 36352
2319431490000: system.mem_ctrls: mytrace2 totalAccess 139492231 totalHit 125392332 overflow 6591 evictTime 0
2325037676000: system.mem_ctrls: mytrace writeOverhead 537445880000 swap 71524 write 11010725 36544
2325037676000: system.mem_ctrls: mytrace2 totalAccess 139620755 totalHit 125491925 overflow 6614 evictTime 0
2332455147000: system.mem_ctrls: mytrace writeOverhead 538337695000 swap 71824 write 11024773 40256
2332455147000: system.mem_ctrls: mytrace2 totalAccess 139810467 totalHit 125636429 overflow 6652 evictTime 0
2334903887000: system.mem_ctrls: mytrace writeOverhead 538636650000 swap 71957 write 11029500 39552
2334903887000: system.mem_ctrls: mytrace2 totalAccess 139874471 totalHit 125685187 overflow 6662 evictTime 0
2361505336000: system.mem_ctrls: mytrace writeOverhead 541611715000 swap 72961 write 11076547 183548544
2361505336000: system.mem_ctrls: mytrace2 totalAccess 140516933 totalHit 126176790 overflow 6783 evictTime 0
2364271106000: system.mem_ctrls: mytrace writeOverhead 541909815000 swap 73078 write 11081193 23296
2364271106000: system.mem_ctrls: mytrace2 totalAccess 140581207 totalHit 126225152 overflow 6792 evictTime 0
2372826393000: system.mem_ctrls: mytrace writeOverhead 542815950000 swap 73458 write 11095144 23872
2372826393000: system.mem_ctrls: mytrace2 totalAccess 140773419 totalHit 126369385 overflow 6829 evictTime 0
2379442014000: system.mem_ctrls: mytrace writeOverhead 543441435000 swap 73610 write 11104391 35776
2379442014000: system.mem_ctrls: mytrace2 totalAccess 140902575 totalHit 126462017 overflow 6854 evictTime 0
2382487830000: system.mem_ctrls: mytrace writeOverhead 543747575000 swap 73677 write 11109067 72512
2382487830000: system.mem_ctrls: mytrace2 totalAccess 140966568 totalHit 126509195 overflow 6867 evictTime 0
2387802069000: system.mem_ctrls: mytrace writeOverhead 544370505000 swap 73885 write 11118308 73600
2387802069000: system.mem_ctrls: mytrace2 totalAccess 141098607 totalHit 126604886 overflow 6888 evictTime 0
2395585309000: system.mem_ctrls: mytrace writeOverhead 545287230000 swap 74166 write 11132278 36672
2395585309000: system.mem_ctrls: mytrace2 totalAccess 141294780 totalHit 126750133 overflow 6920 evictTime 0
2398506377000: system.mem_ctrls: mytrace writeOverhead 545600045000 swap 74262 write 11136890 35520
2398506377000: system.mem_ctrls: mytrace2 totalAccess 141359784 totalHit 126796838 overflow 6932 evictTime 0
2409218084000: system.mem_ctrls: mytrace writeOverhead 546814550000 swap 74618 write 11155677 72576
2409218084000: system.mem_ctrls: mytrace2 totalAccess 141617645 totalHit 126990161 overflow 6983 evictTime 0
2420577721000: system.mem_ctrls: mytrace writeOverhead 548068340000 swap 75092 write 11174276 175997184
2420577721000: system.mem_ctrls: mytrace2 totalAccess 141881366 totalHit 127181887 overflow 7030 evictTime 0
2422789139000: system.mem_ctrls: mytrace writeOverhead 548366040000 swap 75224 write 11178985 56064
2422789139000: system.mem_ctrls: mytrace2 totalAccess 141946877 totalHit 127231790 overflow 7037 evictTime 0
2425198591000: system.mem_ctrls: mytrace writeOverhead 548662530000 swap 75346 write 11183658 36544
2425198591000: system.mem_ctrls: mytrace2 totalAccess 142012173 totalHit 127281860 overflow 7047 evictTime 0
2430942641000: system.mem_ctrls: mytrace writeOverhead 549272580000 swap 75563 write 11193006 183499840
2430942641000: system.mem_ctrls: mytrace2 totalAccess 142141140 totalHit 127377937 overflow 7071 evictTime 0
2434107310000: system.mem_ctrls: mytrace writeOverhead 549577375000 swap 75624 write 11197668 36672
2434107310000: system.mem_ctrls: mytrace2 totalAccess 142204049 totalHit 127423918 overflow 7082 evictTime 0
2436627067000: system.mem_ctrls: mytrace writeOverhead 549882045000 swap 75759 write 11202382 179529792
2436627067000: system.mem_ctrls: mytrace2 totalAccess 142270089 totalHit 127474345 overflow 7096 evictTime 0
2439369809000: system.mem_ctrls: mytrace writeOverhead 550181330000 swap 75862 write 11207059 72448
2439369809000: system.mem_ctrls: mytrace2 totalAccess 142334322 totalHit 127523130 overflow 7109 evictTime 0
2441860658000: system.mem_ctrls: mytrace writeOverhead 550492875000 swap 76094 write 11211754 36736
2441860658000: system.mem_ctrls: mytrace2 totalAccess 142401291 totalHit 127573402 overflow 7120 evictTime 0
2446718125000: system.mem_ctrls: mytrace writeOverhead 551076705000 swap 76310 write 11221123 38208
2446718125000: system.mem_ctrls: mytrace2 totalAccess 142530537 totalHit 127673650 overflow 7141 evictTime 0
2451757447000: system.mem_ctrls: mytrace writeOverhead 551673290000 swap 76568 write 11230463 35520
2451757447000: system.mem_ctrls: mytrace2 totalAccess 142661098 totalHit 127773600 overflow 7164 evictTime 0
2456498355000: system.mem_ctrls: mytrace writeOverhead 552265030000 swap 76704 write 11239813 69504
2456498355000: system.mem_ctrls: mytrace2 totalAccess 142788025 totalHit 127870503 overflow 7191 evictTime 0
2458896518000: system.mem_ctrls: mytrace writeOverhead 552562560000 swap 76796 write 11244535 55040
2458896518000: system.mem_ctrls: mytrace2 totalAccess 142852180 totalHit 127919659 overflow 7203 evictTime 0
2461431100000: system.mem_ctrls: mytrace writeOverhead 552858370000 swap 76852 write 11249212 20160
2461431100000: system.mem_ctrls: mytrace2 totalAccess 142914524 totalHit 127966887 overflow 7216 evictTime 0
2466594044000: system.mem_ctrls: mytrace writeOverhead 553459135000 swap 77036 write 11258550 39552
2466594044000: system.mem_ctrls: mytrace2 totalAccess 143042838 totalHit 128063544 overflow 7241 evictTime 0
2471493417000: system.mem_ctrls: mytrace writeOverhead 554043935000 swap 77224 write 11267960 23232
2471493417000: system.mem_ctrls: mytrace2 totalAccess 143170155 totalHit 128161967 overflow 7263 evictTime 0
2485495401000: system.mem_ctrls: mytrace writeOverhead 555538850000 swap 77708 write 11291321 68352
2485495401000: system.mem_ctrls: mytrace2 totalAccess 143490072 totalHit 128403950 overflow 7323 evictTime 0
2493160119000: system.mem_ctrls: mytrace writeOverhead 556423475000 swap 78025 write 11305426 72384
2493160119000: system.mem_ctrls: mytrace2 totalAccess 143682702 totalHit 128552272 overflow 7357 evictTime 0
2503815752000: system.mem_ctrls: mytrace writeOverhead 557605315000 swap 78407 write 11324155 69312
2503815752000: system.mem_ctrls: mytrace2 totalAccess 143938053 totalHit 128746998 overflow 7400 evictTime 0
2506424455000: system.mem_ctrls: mytrace writeOverhead 557901115000 swap 78505 write 11328839 178397312
2506424455000: system.mem_ctrls: mytrace2 totalAccess 144002104 totalHit 128796176 overflow 7413 evictTime 0
2510073190000: system.mem_ctrls: mytrace writeOverhead 558216860000 swap 78628 write 11333378 56000
2510073190000: system.mem_ctrls: mytrace2 totalAccess 144068839 totalHit 128843595 overflow 7424 evictTime 0
2516447260000: system.mem_ctrls: mytrace writeOverhead 558818105000 swap 78878 write 11342804 39616
2516447260000: system.mem_ctrls: mytrace2 totalAccess 144199454 totalHit 128943115 overflow 7446 evictTime 0
2519372535000: system.mem_ctrls: mytrace writeOverhead 559117415000 swap 78988 write 11347463 69312
2519372535000: system.mem_ctrls: mytrace2 totalAccess 144263970 totalHit 128991644 overflow 7456 evictTime 0
2522421690000: system.mem_ctrls: mytrace writeOverhead 559420215000 swap 79054 write 11352132 35648
2522421690000: system.mem_ctrls: mytrace2 totalAccess 144326631 totalHit 129038241 overflow 7470 evictTime 0
2532481393000: system.mem_ctrls: mytrace writeOverhead 560333550000 swap 79514 write 11365884 36544
2532481393000: system.mem_ctrls: mytrace2 totalAccess 144526751 totalHit 129187363 overflow 7501 evictTime 0
2535400306000: system.mem_ctrls: mytrace writeOverhead 560642095000 swap 79709 write 11370494 72320
2535400306000: system.mem_ctrls: mytrace2 totalAccess 144593758 totalHit 129236913 overflow 7510 evictTime 0
2540229655000: system.mem_ctrls: mytrace writeOverhead 561236595000 swap 79971 write 11379943 53120
2540229655000: system.mem_ctrls: mytrace2 totalAccess 144725484 totalHit 129338376 overflow 7529 evictTime 0
2542330107000: system.mem_ctrls: mytrace writeOverhead 561530905000 swap 80081 write 11384677 38656
2542330107000: system.mem_ctrls: mytrace2 totalAccess 144789750 totalHit 129387903 overflow 7538 evictTime 0
2554322540000: system.mem_ctrls: mytrace writeOverhead 563028825000 swap 80710 write 11408185 35520
2554322540000: system.mem_ctrls: mytrace2 totalAccess 145115075 totalHit 129636516 overflow 7597 evictTime 0
2557098845000: system.mem_ctrls: mytrace writeOverhead 563334095000 swap 80870 write 11412781 183424000
2557098845000: system.mem_ctrls: mytrace2 totalAccess 145182127 totalHit 129686610 overflow 7607 evictTime 0
2560067288000: system.mem_ctrls: mytrace writeOverhead 563632160000 swap 80971 write 11417432 36608
2560067288000: system.mem_ctrls: mytrace2 totalAccess 145246364 totalHit 129735132 overflow 7618 evictTime 0
2571345609000: system.mem_ctrls: mytrace writeOverhead 564829615000 swap 81485 write 11435965 39680
2571345609000: system.mem_ctrls: mytrace2 totalAccess 145507487 totalHit 129932118 overflow 7658 evictTime 0
2573763244000: system.mem_ctrls: mytrace writeOverhead 565133735000 swap 81638 write 11440629 182802176
2573763244000: system.mem_ctrls: mytrace2 totalAccess 145572837 totalHit 129981511 overflow 7671 evictTime 0
2579171243000: system.mem_ctrls: mytrace writeOverhead 565747660000 swap 81866 write 11449931 94697216
2579171243000: system.mem_ctrls: mytrace2 totalAccess 145703648 totalHit 130078617 overflow 7696 evictTime 0
2587937696000: system.mem_ctrls: mytrace writeOverhead 566664450000 swap 82115 write 11463860 39552
2587937696000: system.mem_ctrls: mytrace2 totalAccess 145897847 totalHit 130222026 overflow 7733 evictTime 0
2593499747000: system.mem_ctrls: mytrace writeOverhead 567277170000 swap 82292 write 11473207 37760
2593499747000: system.mem_ctrls: mytrace2 totalAccess 146027596 totalHit 130318149 overflow 7757 evictTime 0
2609918197000: system.mem_ctrls: mytrace writeOverhead 568842300000 swap 82596 write 11496492 56576
2609918197000: system.mem_ctrls: mytrace2 totalAccess 146346388 totalHit 130546399 overflow 7820 evictTime 0
2612570360000: system.mem_ctrls: mytrace writeOverhead 569134280000 swap 82677 write 11501170 166843008
2612570360000: system.mem_ctrls: mytrace2 totalAccess 146409137 totalHit 130594863 overflow 7834 evictTime 0
2614723637000: system.mem_ctrls: mytrace writeOverhead 569425430000 swap 82801 write 11505883 55936
2614723637000: system.mem_ctrls: mytrace2 totalAccess 146472865 totalHit 130644894 overflow 7847 evictTime 0
2617618726000: system.mem_ctrls: mytrace writeOverhead 569742855000 swap 82862 write 11510500 823936
2617618726000: system.mem_ctrls: mytrace2 totalAccess 146537633 totalHit 130690528 overflow 7860 evictTime 0
2623574322000: system.mem_ctrls: mytrace writeOverhead 570348790000 swap 83023 write 11519915 72576
2623574322000: system.mem_ctrls: mytrace2 totalAccess 146666870 totalHit 130787359 overflow 7882 evictTime 0
2635868007000: system.mem_ctrls: mytrace writeOverhead 571835645000 swap 83587 write 11543293 68352
2635868007000: system.mem_ctrls: mytrace2 totalAccess 146990967 totalHit 131035540 overflow 7941 evictTime 0
2646498190000: system.mem_ctrls: mytrace writeOverhead 573036805000 swap 84030 write 11561989 68352
2646498190000: system.mem_ctrls: mytrace2 totalAccess 147250560 totalHit 131231925 overflow 7986 evictTime 0
2657644457000: system.mem_ctrls: mytrace writeOverhead 574252960000 swap 84375 write 11580691 68288
2657644457000: system.mem_ctrls: mytrace2 totalAccess 147508815 totalHit 131423959 overflow 8031 evictTime 0
2666417389000: system.mem_ctrls: mytrace writeOverhead 575175445000 swap 84721 write 11594702 72448
2666417389000: system.mem_ctrls: mytrace2 totalAccess 147705539 totalHit 131570096 overflow 8066 evictTime 0
2669349238000: system.mem_ctrls: mytrace writeOverhead 575476670000 swap 84833 write 11599358 39808
2669349238000: system.mem_ctrls: mytrace2 totalAccess 147769637 totalHit 131617895 overflow 8076 evictTime 0
2682405584000: system.mem_ctrls: mytrace writeOverhead 576702350000 swap 85352 write 11617781 823936
2682405584000: system.mem_ctrls: mytrace2 totalAccess 148032573 totalHit 131811965 overflow 8121 evictTime 0
2688726533000: system.mem_ctrls: mytrace writeOverhead 577309820000 swap 85532 write 11626943 36736
2688726533000: system.mem_ctrls: mytrace2 totalAccess 148159915 totalHit 131905519 overflow 8148 evictTime 0
[...]
33023383881000: system.mem_ctrls: mytrace2 totalAccess 887528915 totalHit 700557696 overflow 126207 evictTime 0
33027519657000: system.mem_ctrls: mytrace writeOverhead 3956526400000 swap 1329584 write 65577841 36544
33027519657000: system.mem_ctrls: mytrace2 totalAccess 887594598 totalHit 700603426 overflow 126220 evictTime 0
33036483957000: system.mem_ctrls: mytrace writeOverhead 3957464235000 swap 1330048 write 65591673 39680
33036483957000: system.mem_ctrls: mytrace2 totalAccess 887794945 totalHit 700748386 overflow 126245 evictTime 0
33041494177000: system.mem_ctrls: mytrace writeOverhead 3958047055000 swap 1330267 write 65601210 69440
33041494177000: system.mem_ctrls: mytrace2 totalAccess 887922371 totalHit 700848544 overflow 126269 evictTime 0
33043456680000: system.mem_ctrls: mytrace writeOverhead 3958332460000 swap 1330403 write 65606031 183629632
33043456680000: system.mem_ctrls: mytrace2 totalAccess 887986192 totalHit 700899792 overflow 126278 evictTime 0
33045250490000: system.mem_ctrls: mytrace writeOverhead 3958620505000 swap 1330561 write 65610843 35520
33045250490000: system.mem_ctrls: mytrace2 totalAccess 888050491 totalHit 700951850 overflow 126291 evictTime 0
33048797661000: system.mem_ctrls: mytrace writeOverhead 3959195085000 swap 1330882 write 65620442 35648
33048797661000: system.mem_ctrls: mytrace2 totalAccess 888179406 totalHit 701055754 overflow 126313 evictTime 0
33062922852000: system.mem_ctrls: mytrace writeOverhead 3961219815000 swap 1332005 write 65653586 53056
33062922852000: system.mem_ctrls: mytrace2 totalAccess 888630226 totalHit 701412135 overflow 126386 evictTime 0
33066350408000: system.mem_ctrls: mytrace writeOverhead 3961521640000 swap 1332089 write 65658329 56704
33066350408000: system.mem_ctrls: mytrace2 totalAccess 888693572 totalHit 701459443 overflow 126396 evictTime 0
33069032369000: system.mem_ctrls: mytrace writeOverhead 3961819610000 swap 1332202 write 65663095 55936
33069032369000: system.mem_ctrls: mytrace2 totalAccess 888756857 totalHit 701508263 overflow 126410 evictTime 0
33072292216000: system.mem_ctrls: mytrace writeOverhead 3962125330000 swap 1332290 write 65667843 36608
33072292216000: system.mem_ctrls: mytrace2 totalAccess 888821127 totalHit 701556078 overflow 126421 evictTime 0
33080388186000: system.mem_ctrls: mytrace writeOverhead 3963039845000 swap 1332630 write 65682019 56256
33080388186000: system.mem_ctrls: mytrace2 totalAccess 889015605 totalHit 701701661 overflow 126452 evictTime 0
33082831912000: system.mem_ctrls: mytrace writeOverhead 3963347405000 swap 1332730 write 65686629 69312
33082831912000: system.mem_ctrls: mytrace2 totalAccess 889081097 totalHit 701749190 overflow 126461 evictTime 0
33094546099000: system.mem_ctrls: mytrace writeOverhead 3964901205000 swap 1333445 write 65710322 39744
33094546099000: system.mem_ctrls: mytrace2 totalAccess 889404645 totalHit 701989348 overflow 126524 evictTime 0
33099081808000: system.mem_ctrls: mytrace writeOverhead 3965531630000 swap 1333853 write 65719808 8064
33099081808000: system.mem_ctrls: mytrace2 totalAccess 889537611 totalHit 702087761 overflow 126545 evictTime 0
33106346259000: system.mem_ctrls: mytrace writeOverhead 3966476130000 swap 1334312 write 65733670 39616
33106346259000: system.mem_ctrls: mytrace2 totalAccess 889734571 totalHit 702229635 overflow 126580 evictTime 0
33111453376000: system.mem_ctrls: mytrace writeOverhead 3967110515000 swap 1334687 write 65742984 72384
33111453376000: system.mem_ctrls: mytrace2 totalAccess 889867125 totalHit 702325270 overflow 126601 evictTime 0
33116396144000: system.mem_ctrls: mytrace writeOverhead 3967746305000 swap 1335040 write 65752323 40064
33116396144000: system.mem_ctrls: mytrace2 totalAccess 889997396 totalHit 702419086 overflow 126626 evictTime 0
33124780740000: system.mem_ctrls: mytrace writeOverhead 3968682020000 swap 1335483 write 65766121 56256
33124780740000: system.mem_ctrls: mytrace2 totalAccess 890189972 totalHit 702558620 overflow 126666 evictTime 0
33127037384000: system.mem_ctrls: mytrace writeOverhead 3968972990000 swap 1335602 write 65770837 55936
33127037384000: system.mem_ctrls: mytrace2 totalAccess 890251203 totalHit 702606347 overflow 126680 evictTime 0
33131939141000: system.mem_ctrls: mytrace writeOverhead 3969587325000 swap 1335784 write 65780170 52928
33131939141000: system.mem_ctrls: mytrace2 totalAccess 890376363 totalHit 702698751 overflow 126710 evictTime 0
33145322596000: system.mem_ctrls: mytrace writeOverhead 3971080250000 swap 1336145 write 65804074 945024
33145322596000: system.mem_ctrls: mytrace2 totalAccess 890692451 totalHit 702940014 overflow 126769 evictTime 0
33153843935000: system.mem_ctrls: mytrace writeOverhead 3972008015000 swap 1336449 write 65818338 39872
33153843935000: system.mem_ctrls: mytrace2 totalAccess 890886918 totalHit 703084426 overflow 126804 evictTime 0
33156921145000: system.mem_ctrls: mytrace writeOverhead 3972328630000 swap 1336528 write 65823112 23168
33156921145000: system.mem_ctrls: mytrace2 totalAccess 890951165 totalHit 703130612 overflow 126818 evictTime 0
33159032474000: system.mem_ctrls: mytrace writeOverhead 3972621580000 swap 1336637 write 65827922 56000
33159032474000: system.mem_ctrls: mytrace2 totalAccess 891015624 totalHit 703181477 overflow 126829 evictTime 0
33164175714000: system.mem_ctrls: mytrace writeOverhead 3973214070000 swap 1336893 write 65837388 69376
33164175714000: system.mem_ctrls: mytrace2 totalAccess 891145533 totalHit 703281688 overflow 126848 evictTime 0
33171238521000: system.mem_ctrls: mytrace writeOverhead 3974106715000 swap 1337268 write 65851632 72384
33171238521000: system.mem_ctrls: mytrace2 totalAccess 891340141 totalHit 703431710 overflow 126877 evictTime 0
33173996811000: system.mem_ctrls: mytrace writeOverhead 3974411225000 swap 1337369 write 65856417 36672
33173996811000: system.mem_ctrls: mytrace2 totalAccess 891403727 totalHit 703479776 overflow 126890 evictTime 0
33176420427000: system.mem_ctrls: mytrace writeOverhead 3974702750000 swap 1337471 write 65861214 56320
33176420427000: system.mem_ctrls: mytrace2 totalAccess 891466998 totalHit 703529558 overflow 126902 evictTime 0
33182297529000: system.mem_ctrls: mytrace writeOverhead 3975298220000 swap 1337612 write 65870823 72448
33182297529000: system.mem_ctrls: mytrace2 totalAccess 891591835 totalHit 703625053 overflow 126926 evictTime 0
33184885491000: system.mem_ctrls: mytrace writeOverhead 3975605515000 swap 1337729 write 65875591 22208
33184885491000: system.mem_ctrls: mytrace2 totalAccess 891656624 totalHit 703673815 overflow 126938 evictTime 0
33192693969000: system.mem_ctrls: mytrace writeOverhead 3976507755000 swap 1338060 write 65889855 183427712
33192693969000: system.mem_ctrls: mytrace2 totalAccess 891849809 totalHit 703821111 overflow 126971 evictTime 0
33194962662000: system.mem_ctrls: mytrace writeOverhead 3976800185000 swap 1338173 write 65894617 56064
33194962662000: system.mem_ctrls: mytrace2 totalAccess 891914191 totalHit 703871550 overflow 126982 evictTime 0
33201869231000: system.mem_ctrls: mytrace writeOverhead 3977401930000 swap 1338526 write 65903839 39744
33201869231000: system.mem_ctrls: mytrace2 totalAccess 892044214 totalHit 703969535 overflow 127004 evictTime 0
33204126938000: system.mem_ctrls: mytrace writeOverhead 3977696370000 swap 1338663 write 65908562 56192
33204126938000: system.mem_ctrls: mytrace2 totalAccess 892108908 totalHit 704019464 overflow 127013 evictTime 0
33211895309000: system.mem_ctrls: mytrace writeOverhead 3978578345000 swap 1339028 write 65922920 56000
33211895309000: system.mem_ctrls: mytrace2 totalAccess 892299251 totalHit 704167909 overflow 127048 evictTime 0
33214512113000: system.mem_ctrls: mytrace writeOverhead 3978878010000 swap 1339148 write 65927643 160240000
33214512113000: system.mem_ctrls: mytrace2 totalAccess 892363662 totalHit 704216790 overflow 127058 evictTime 0
33222043532000: system.mem_ctrls: mytrace writeOverhead 3979770640000 swap 1339588 write 65941949 39680
33222043532000: system.mem_ctrls: mytrace2 totalAccess 892556203 totalHit 704366196 overflow 127095 evictTime 0
33233971759000: system.mem_ctrls: mytrace writeOverhead 3980954495000 swap 1340161 write 65960681 23552
33233971759000: system.mem_ctrls: mytrace2 totalAccess 892813893 totalHit 704562900 overflow 127132 evictTime 0
33236239527000: system.mem_ctrls: mytrace writeOverhead 3981235940000 swap 1340255 write 65965392 56256
33236239527000: system.mem_ctrls: mytrace2 totalAccess 892876593 totalHit 704612646 overflow 127141 evictTime 0
33238825404000: system.mem_ctrls: mytrace writeOverhead 3981528355000 swap 1340353 write 65970157 53184
33238825404000: system.mem_ctrls: mytrace2 totalAccess 892940076 totalHit 704662208 overflow 127153 evictTime 0
33241652992000: system.mem_ctrls: mytrace writeOverhead 3981823445000 swap 1340463 write 65974917 69504
33241652992000: system.mem_ctrls: mytrace2 totalAccess 893003895 totalHit 704711381 overflow 127163 evictTime 0
33244047868000: system.mem_ctrls: mytrace writeOverhead 3982119735000 swap 1340597 write 65979647 19072
33244047868000: system.mem_ctrls: mytrace2 totalAccess 893069238 totalHit 704761821 overflow 127172 evictTime 0
33248759503000: system.mem_ctrls: mytrace writeOverhead 3982706215000 swap 1340850 write 65989119 56192
33248759503000: system.mem_ctrls: mytrace2 totalAccess 893198872 totalHit 704862987 overflow 127193 evictTime 0
33258558011000: system.mem_ctrls: mytrace writeOverhead 3983612470000 swap 1341341 write 66002916 83106944
33258558011000: system.mem_ctrls: mytrace2 totalAccess 893394297 totalHit 705008538 overflow 127222 evictTime 0
33261096344000: system.mem_ctrls: mytrace writeOverhead 3983914335000 swap 1341468 write 66007553 69504
33261096344000: system.mem_ctrls: mytrace2 totalAccess 893459606 totalHit 705057211 overflow 127231 evictTime 0
33263569054000: system.mem_ctrls: mytrace writeOverhead 3984202455000 swap 1341546 write 66012149 36672
33263569054000: system.mem_ctrls: mytrace2 totalAccess 893523300 totalHit 705106240 overflow 127242 evictTime 0
33267933993000: system.mem_ctrls: mytrace writeOverhead 3984781580000 swap 1341755 write 66021518 35776
33267933993000: system.mem_ctrls: mytrace2 totalAccess 893651750 totalHit 705206692 overflow 127265 evictTime 0
33269969775000: system.mem_ctrls: mytrace writeOverhead 3985079095000 swap 1341877 write 66026250 20928
33269969775000: system.mem_ctrls: mytrace2 totalAccess 893717278 totalHit 705257062 overflow 127274 evictTime 0
33276768138000: system.mem_ctrls: mytrace writeOverhead 3986001000000 swap 1342240 write 66040396 53696
33276768138000: system.mem_ctrls: mytrace2 totalAccess 893912355 totalHit 705403335 overflow 127314 evictTime 0
33279023710000: system.mem_ctrls: mytrace writeOverhead 3986308580000 swap 1342355 write 66045166 56000
33279023710000: system.mem_ctrls: mytrace2 totalAccess 893977252 totalHit 705452109 overflow 127326 evictTime 0
33285065822000: system.mem_ctrls: mytrace writeOverhead 3987209010000 swap 1342695 write 66059376 39680
33285065822000: system.mem_ctrls: mytrace2 totalAccess 894171516 totalHit 705600401 overflow 127359 evictTime 0
33294828175000: system.mem_ctrls: mytrace writeOverhead 3988721810000 swap 1343469 write 66083158 53632
33294828175000: system.mem_ctrls: mytrace2 totalAccess 894499164 totalHit 705851981 overflow 127418 evictTime 0
33297103665000: system.mem_ctrls: mytrace writeOverhead 3989022715000 swap 1343608 write 66087918 56384
33297103665000: system.mem_ctrls: mytrace2 totalAccess 894563647 totalHit 705901092 overflow 127428 evictTime 0
33304676269000: system.mem_ctrls: mytrace writeOverhead 3989955180000 swap 1343804 write 66102204 72640
33304676269000: system.mem_ctrls: mytrace2 totalAccess 894753186 totalHit 706041154 overflow 127474 evictTime 0
33306503992000: system.mem_ctrls: mytrace writeOverhead 3990249245000 swap 1343906 write 66106972 69504
33306503992000: system.mem_ctrls: mytrace2 totalAccess 894817824 totalHit 706091472 overflow 127484 evictTime 0
33320418364000: system.mem_ctrls: mytrace writeOverhead 3992353705000 swap 1344866 write 66140013 19584
33320418364000: system.mem_ctrls: mytrace2 totalAccess 895271931 totalHit 706438753 overflow 127568 evictTime 0
33324553581000: system.mem_ctrls: mytrace writeOverhead 3992950740000 swap 1345128 write 66149556 73600
33324553581000: system.mem_ctrls: mytrace2 totalAccess 895399935 totalHit 706537266 overflow 127590 evictTime 0
33328901199000: system.mem_ctrls: mytrace writeOverhead 3993569330000 swap 1345415 write 66159068 38208
33328901199000: system.mem_ctrls: mytrace2 totalAccess 895530709 totalHit 706635439 overflow 127614 evictTime 0
33331225998000: system.mem_ctrls: mytrace writeOverhead 3993884525000 swap 1345581 write 66163806 56128
33331225998000: system.mem_ctrls: mytrace2 totalAccess 895595992 totalHit 706683902 overflow 127629 evictTime 0
33335710320000: system.mem_ctrls: mytrace writeOverhead 3994498365000 swap 1345840 write 66173311 36672
33335710320000: system.mem_ctrls: mytrace2 totalAccess 895726051 totalHit 706781069 overflow 127648 evictTime 0
33337872691000: system.mem_ctrls: mytrace writeOverhead 3994802830000 swap 1346014 write 66178076 56384
33337872691000: system.mem_ctrls: mytrace2 totalAccess 895791701 totalHit 706830935 overflow 127657 evictTime 0
33342604369000: system.mem_ctrls: mytrace writeOverhead 3995413230000 swap 1346245 write 66187609 56448
33342604369000: system.mem_ctrls: mytrace2 totalAccess 895920546 totalHit 706927880 overflow 127679 evictTime 0
33347308201000: system.mem_ctrls: mytrace writeOverhead 3996051405000 swap 1346561 write 66197066 39680
33347308201000: system.mem_ctrls: mytrace2 totalAccess 896052233 totalHit 707024279 overflow 127708 evictTime 0
33351915024000: system.mem_ctrls: mytrace writeOverhead 3996673515000 swap 1346867 write 66206598 20288
33351915024000: system.mem_ctrls: mytrace2 totalAccess 896182403 totalHit 707121255 overflow 127731 evictTime 0
33356191798000: system.mem_ctrls: mytrace writeOverhead 3997287815000 swap 1347138 write 66216100 183424000
33356191798000: system.mem_ctrls: mytrace2 totalAccess 896312247 totalHit 707218709 overflow 127753 evictTime 0
33358399808000: system.mem_ctrls: mytrace writeOverhead 3997602110000 swap 1347275 write 66220883 20032
33358399808000: system.mem_ctrls: mytrace2 totalAccess 896377185 totalHit 707267263 overflow 127769 evictTime 0
33361497743000: system.mem_ctrls: mytrace writeOverhead 3997933895000 swap 1347400 write 66225611 53056
33361497743000: system.mem_ctrls: mytrace2 totalAccess 896444305 totalHit 707313763 overflow 127779 evictTime 0
33363991584000: system.mem_ctrls: mytrace writeOverhead 3998257960000 swap 1347557 write 66230398 176521728
33363991584000: system.mem_ctrls: mytrace2 totalAccess 896510941 totalHit 707362442 overflow 127794 evictTime 0
33365724505000: system.mem_ctrls: mytrace writeOverhead 3998554025000 swap 1347708 write 66235195 183499840
33365724505000: system.mem_ctrls: mytrace2 totalAccess 896575907 totalHit 707413001 overflow 127802 evictTime 0
33380452751000: system.mem_ctrls: mytrace writeOverhead 4000703590000 swap 1348788 write 66268562 35520
33380452751000: system.mem_ctrls: mytrace2 totalAccess 897030323 totalHit 707756251 overflow 127883 evictTime 0
33382618048000: system.mem_ctrls: mytrace writeOverhead 4001010750000 swap 1348906 write 66273295 35456
33382618048000: system.mem_ctrls: mytrace2 totalAccess 897095020 totalHit 707804892 overflow 127897 evictTime 0
33384920943000: system.mem_ctrls: mytrace writeOverhead 4001329195000 swap 1349045 write 66278033 55936
33384920943000: system.mem_ctrls: mytrace2 totalAccess 897160256 totalHit 707852789 overflow 127913 evictTime 0
33395444900000: system.mem_ctrls: mytrace writeOverhead 4002869865000 swap 1349861 write 66301793 183029056
33395444900000: system.mem_ctrls: mytrace2 totalAccess 897485919 totalHit 708097554 overflow 127968 evictTime 0
33397686700000: system.mem_ctrls: mytrace writeOverhead 4003173510000 swap 1349942 write 66306502 40000
33397686700000: system.mem_ctrls: mytrace2 totalAccess 897549568 totalHit 708145579 overflow 127984 evictTime 0
33399437785000: system.mem_ctrls: mytrace writeOverhead 4003473725000 swap 1350080 write 66311253 56384
33399437785000: system.mem_ctrls: mytrace2 totalAccess 897614517 totalHit 708195554 overflow 127995 evictTime 0
33402656318000: system.mem_ctrls: mytrace writeOverhead 4004046970000 swap 1350379 write 66320858 54528
33402656318000: system.mem_ctrls: mytrace2 totalAccess 897742591 totalHit 708298317 overflow 128014 evictTime 0
33406316194000: system.mem_ctrls: mytrace writeOverhead 4004650085000 swap 1350741 write 66330316 31124928
33406316194000: system.mem_ctrls: mytrace2 totalAccess 897871515 totalHit 708396727 overflow 128035 evictTime 0
33408194194000: system.mem_ctrls: mytrace writeOverhead 4004950710000 swap 1350976 write 66335069 109531072
33408194194000: system.mem_ctrls: mytrace2 totalAccess 897935642 totalHit 708446092 overflow 128045 evictTime 0
33415412280000: system.mem_ctrls: mytrace writeOverhead 4005877840000 swap 1351503 write 66349337 181311936
33415412280000: system.mem_ctrls: mytrace2 totalAccess 898131200 totalHit 708592966 overflow 128079 evictTime 0
33419777151000: system.mem_ctrls: mytrace writeOverhead 4006488695000 swap 1351843 write 66358953 19968
33419777151000: system.mem_ctrls: mytrace2 totalAccess 898260851 totalHit 708692581 overflow 128105 evictTime 0
33421821801000: system.mem_ctrls: mytrace writeOverhead 4006784785000 swap 1352012 write 66363760 68608
33421821801000: system.mem_ctrls: mytrace2 totalAccess 898324838 totalHit 708742439 overflow 128114 evictTime 0
33428645887000: system.mem_ctrls: mytrace writeOverhead 4007692570000 swap 1352448 write 66378088 56064
33428645887000: system.mem_ctrls: mytrace2 totalAccess 898519555 totalHit 708891526 overflow 128148 evictTime 0
33431993318000: system.mem_ctrls: mytrace writeOverhead 4008283105000 swap 1352800 write 66387536 23552
33431993318000: system.mem_ctrls: mytrace2 totalAccess 898649844 totalHit 708992939 overflow 128168 evictTime 0
33440015702000: system.mem_ctrls: mytrace writeOverhead 4009451525000 swap 1353344 write 66406387 36672
33440015702000: system.mem_ctrls: mytrace2 totalAccess 898905784 totalHit 709193457 overflow 128221 evictTime 0
33442530666000: system.mem_ctrls: mytrace writeOverhead 4009749750000 swap 1353462 write 66411098 63768256
33442530666000: system.mem_ctrls: mytrace2 totalAccess 898969653 totalHit 709241967 overflow 128232 evictTime 0
33446303299000: system.mem_ctrls: mytrace writeOverhead 4010335880000 swap 1353760 write 66420581 52992
33446303299000: system.mem_ctrls: mytrace2 totalAccess 899098836 totalHit 709343566 overflow 128257 evictTime 0
33448185036000: system.mem_ctrls: mytrace writeOverhead 4010627980000 swap 1353894 write 66425311 39552
33448185036000: system.mem_ctrls: mytrace2 totalAccess 899163506 totalHit 709394260 overflow 128269 evictTime 0
33454648080000: system.mem_ctrls: mytrace writeOverhead 4011532475000 swap 1354432 write 66439401 183443840
33454648080000: system.mem_ctrls: mytrace2 totalAccess 899360844 totalHit 709544585 overflow 128300 evictTime 0
33459092024000: system.mem_ctrls: mytrace writeOverhead 4012138865000 swap 1354823 write 66448701 36544
33459092024000: system.mem_ctrls: mytrace2 totalAccess 899492374 totalHit 709643819 overflow 128321 evictTime 0
33463163776000: system.mem_ctrls: mytrace writeOverhead 4012448365000 swap 1355040 write 66453164 20096
33463163776000: system.mem_ctrls: mytrace2 totalAccess 899559364 totalHit 709692262 overflow 128330 evictTime 0
33464897225000: system.mem_ctrls: mytrace writeOverhead 4012742875000 swap 1355193 write 66457849 21440
33464897225000: system.mem_ctrls: mytrace2 totalAccess 899624749 totalHit 709743001 overflow 128341 evictTime 0
11  0.13   1939268 Bb4 Qc2 Ka8 g4 h5 g5 Ng4 g6 Bxc3 Qxc3 fxg6 Nxg6 
Exiting @ tick 33469567337000 because exiting with last active thread context
