gem5 Simulator System.  http://gem5.org
gem5 is copyrighted software; use the --copyright option for details.

gem5 compiled Mar 29 2021 23:57:11
gem5 started Mar 31 2021 01:42:20
gem5 executing on tiger, pid 10807
command line: build/RISCV/gem5.opt --debug-flag=MYTRACE -r --stdout-file=simout-mcf configs/example/se.py -n 1 --caches --cpu-type=TimingSimpleCPU --mem-size=2GB --mem-channels=1 -c ./429.mcf/exe/mcf_base.amd64-m64-gcc41-nn -o ./429.mcf/data/train/input/inp.in

Global frequency set at 1000000000000 ticks per second
warn: DRAM device capacity (8192 Mbytes) does not match the address range assigned (2048 Mbytes)
0: system.remote_gdb: listening for remote gdb on port 7000
**** REAL SIMULATION ****
info: Entering event queue @ 0.  Starting simulation...
info: Increasing stack size by one page.

MCF SPEC CPU2006 version 1.10
Copyright (c) 1998-2000 Zuse Institut Berlin (ZIB)
Copyright (c) 2000-2002 Andreas Loebel & ZIB
Copyright (c) 2003-2005 Andreas Loebel

2372980000: system.mem_ctrls: mytrace writeOverhead 193255000 swap 1 write 4276 687488
2372980000: system.mem_ctrls: mytrace2 totalAccess 58927 totalHit 55315 overflow 0 evictTime 0
9143868000: system.mem_ctrls: mytrace writeOverhead 845880000 swap 1 write 19063 5621248
9143868000: system.mem_ctrls: mytrace2 totalAccess 242889 totalHit 229458 overflow 0 evictTime 0
13662712000: system.mem_ctrls: mytrace writeOverhead 1280720000 swap 1 write 28923 5916224
13662712000: system.mem_ctrls: mytrace2 totalAccess 365527 totalHit 345616 overflow 0 evictTime 0
15919667000: system.mem_ctrls: mytrace writeOverhead 1498065000 swap 1 write 33837 1167808
15919667000: system.mem_ctrls: mytrace2 totalAccess 426820 totalHit 403569 overflow 0 evictTime 0
20443401000: system.mem_ctrls: mytrace writeOverhead 1932245000 swap 1 write 43695 6391360
20443401000: system.mem_ctrls: mytrace2 totalAccess 549407 totalHit 519761 overflow 0 evictTime 0
22695457000: system.mem_ctrls: mytrace writeOverhead 2149300000 swap 1 write 48628 2770112
22695457000: system.mem_ctrls: mytrace2 totalAccess 610697 totalHit 577875 overflow 0 evictTime 0
40788294000: system.mem_ctrls: mytrace writeOverhead 3691360000 swap 1 write 83148 7633152
40788294000: system.mem_ctrls: mytrace2 totalAccess 1041501 totalHit 982871 overflow 0 evictTime 0
62455623000: system.mem_ctrls: mytrace writeOverhead 4358365000 swap 1 write 92754 8013888
62455623000: system.mem_ctrls: mytrace2 totalAccess 1181229 totalHit 1079113 overflow 0 evictTime 0
75165538000: system.mem_ctrls: mytrace writeOverhead 4643450000 swap 1 write 97547 8228416
75165538000: system.mem_ctrls: mytrace2 totalAccess 1247361 totalHit 1130891 overflow 0 evictTime 0
86828189000: system.mem_ctrls: mytrace writeOverhead 4949145000 swap 2 write 102336 8452608
86828189000: system.mem_ctrls: mytrace2 totalAccess 1314989 totalHit 1180912 overflow 0 evictTime 0
98149269000: system.mem_ctrls: mytrace writeOverhead 5270680000 swap 2 write 107140 8668864
98149269000: system.mem_ctrls: mytrace2 totalAccess 1383932 totalHit 1229947 overflow 0 evictTime 0
169440327000: system.mem_ctrls: mytrace writeOverhead 7124235000 swap 2 write 135974 10033856
169440327000: system.mem_ctrls: mytrace2 totalAccess 1791962 totalHit 1530330 overflow 0 evictTime 0
181514884000: system.mem_ctrls: mytrace writeOverhead 7424995000 swap 2 write 140775 1026240
181514884000: system.mem_ctrls: mytrace2 totalAccess 1859337 totalHit 1580969 overflow 0 evictTime 0
193475373000: system.mem_ctrls: mytrace writeOverhead 7727540000 swap 2 write 145565 10496960
193475373000: system.mem_ctrls: mytrace2 totalAccess 1926745 totalHit 1631268 overflow 0 evictTime 0
216572603000: system.mem_ctrls: mytrace writeOverhead 8361140000 swap 2 write 155166 10962560
216572603000: system.mem_ctrls: mytrace2 totalAccess 2063940 totalHit 1729996 overflow 0 evictTime 0
227624204000: system.mem_ctrls: mytrace writeOverhead 8685615000 swap 2 write 159961 11208256
227624204000: system.mem_ctrls: mytrace2 totalAccess 2133205 totalHit 1778742 overflow 0 evictTime 0
250457369000: system.mem_ctrls: mytrace writeOverhead 9319390000 swap 2 write 169568 11588352
250457369000: system.mem_ctrls: mytrace2 totalAccess 2270461 totalHit 1877592 overflow 0 evictTime 0
261667818000: system.mem_ctrls: mytrace writeOverhead 9640960000 swap 2 write 174343 11839232
261667818000: system.mem_ctrls: mytrace2 totalAccess 2339420 totalHit 1926404 overflow 0 evictTime 0
272668228000: system.mem_ctrls: mytrace writeOverhead 9968120000 swap 2 write 179151 2781120
272668228000: system.mem_ctrls: mytrace2 totalAccess 2408826 totalHit 1975008 overflow 0 evictTime 0
283549390000: system.mem_ctrls: mytrace writeOverhead 10299410000 swap 2 write 183940 12253888
283549390000: system.mem_ctrls: mytrace2 totalAccess 2478524 totalHit 2023290 overflow 0 evictTime 0
296433940000: system.mem_ctrls: mytrace writeOverhead 10588235000 swap 2 write 188767 12502336
296433940000: system.mem_ctrls: mytrace2 totalAccess 2544958 totalHit 2075082 overflow 0 evictTime 0
319528910000: system.mem_ctrls: mytrace writeOverhead 11214610000 swap 2 write 198345 1377920
319528910000: system.mem_ctrls: mytrace2 totalAccess 2681575 totalHit 2174253 overflow 0 evictTime 0
369093707000: system.mem_ctrls: mytrace writeOverhead 12407305000 swap 2 write 217592 13888768
369093707000: system.mem_ctrls: mytrace2 totalAccess 2950141 totalHit 2377977 overflow 0 evictTime 0
380702372000: system.mem_ctrls: mytrace writeOverhead 12721695000 swap 2 write 222397 14114368
380702372000: system.mem_ctrls: mytrace2 totalAccess 3018557 totalHit 2427581 overflow 0 evictTime 0
412363033000: system.mem_ctrls: mytrace writeOverhead 13729705000 swap 2 write 236765 1349952
412363033000: system.mem_ctrls: mytrace2 totalAccess 3228931 totalHit 2571178 overflow 0 evictTime 0
423655912000: system.mem_ctrls: mytrace writeOverhead 14057295000 swap 2 write 241563 14935552
423655912000: system.mem_ctrls: mytrace2 totalAccess 3298361 totalHit 2619823 overflow 0 evictTime 0
458337599000: system.mem_ctrls: mytrace writeOverhead 15003570000 swap 2 write 255956 15569280
458337599000: system.mem_ctrls: mytrace2 totalAccess 3503981 totalHit 2768427 overflow 0 evictTime 0
481274705000: system.mem_ctrls: mytrace writeOverhead 15634690000 swap 2 write 265553 1067584
481274705000: system.mem_ctrls: mytrace2 totalAccess 3641029 totalHit 2867438 overflow 0 evictTime 0
505371225000: system.mem_ctrls: mytrace writeOverhead 16238770000 swap 2 write 275153 2415232
505371225000: system.mem_ctrls: mytrace2 totalAccess 3775891 totalHit 2968498 overflow 0 evictTime 0
564014524000: system.mem_ctrls: mytrace writeOverhead 17808440000 swap 3 write 299169 1902912
564014524000: system.mem_ctrls: mytrace2 totalAccess 4117895 totalHit 3216958 overflow 0 evictTime 0
575326356000: system.mem_ctrls: mytrace writeOverhead 18135640000 swap 3 write 303979 17847488
575326356000: system.mem_ctrls: mytrace2 totalAccess 4187350 totalHit 3265648 overflow 0 evictTime 0
586767600000: system.mem_ctrls: mytrace writeOverhead 18457600000 swap 3 write 308783 18034112
586767600000: system.mem_ctrls: mytrace2 totalAccess 4256369 totalHit 3314713 overflow 0 evictTime 0
nodes                      : 13225
590753727000: system.mem_ctrls: mytrace writeOverhead 19850415000 swap 3 write 338651 5150464
590753727000: system.mem_ctrls: mytrace2 totalAccess 4631404 totalHit 3658547 overflow 0 evictTime 0
604954203000: system.mem_ctrls: mytrace writeOverhead 28773475000 swap 3 write 543649 681856
604954203000: system.mem_ctrls: mytrace2 totalAccess 7149281 totalHit 6060406 overflow 0 evictTime 0
active arcs                : 204416
612303678000: system.mem_ctrls: mytrace writeOverhead 32220565000 swap 3 write 620118 1550336
612303678000: system.mem_ctrls: mytrace2 totalAccess 8167363 totalHit 7014052 overflow 0 evictTime 0
613331243000: system.mem_ctrls: mytrace writeOverhead 32481690000 swap 3 write 625649 2116992
613331243000: system.mem_ctrls: mytrace2 totalAccess 8272829 totalHit 7112824 overflow 0 evictTime 0
615384954000: system.mem_ctrls: mytrace writeOverhead 33004610000 swap 3 write 636727 3269248
615384954000: system.mem_ctrls: mytrace2 totalAccess 8483829 totalHit 7310435 overflow 0 evictTime 0
638864402000: system.mem_ctrls: mytrace writeOverhead 38253585000 swap 3 write 656140 1858240
638864402000: system.mem_ctrls: mytrace2 totalAccess 9918656 totalHit 7870267 overflow 7 evictTime 0
639895083000: system.mem_ctrls: mytrace writeOverhead 38517230000 swap 3 write 661686 2415616
639895083000: system.mem_ctrls: mytrace2 totalAccess 10024342 totalHit 7968937 overflow 7 evictTime 0
640408818000: system.mem_ctrls: mytrace writeOverhead 38647530000 swap 3 write 664445 2702400
640408818000: system.mem_ctrls: mytrace2 totalAccess 10077046 totalHit 8018294 overflow 7 evictTime 0
640934575000: system.mem_ctrls: mytrace writeOverhead 38774830000 swap 3 write 667116 2991744
640934575000: system.mem_ctrls: mytrace2 totalAccess 10129453 totalHit 8067247 overflow 7 evictTime 0
650490954000: system.mem_ctrls: mytrace writeOverhead 40914700000 swap 3 write 673590 686912
650490954000: system.mem_ctrls: mytrace2 totalAccess 10699107 totalHit 8269134 overflow 11 evictTime 0
661994419000: system.mem_ctrls: mytrace writeOverhead 43434955000 swap 3 write 677391 445632
661994419000: system.mem_ctrls: mytrace2 totalAccess 11346311 totalHit 8451902 overflow 17 evictTime 0
663503635000: system.mem_ctrls: mytrace writeOverhead 43778000000 swap 3 write 680957 982784
663503635000: system.mem_ctrls: mytrace2 totalAccess 11459875 totalHit 8526834 overflow 17 evictTime 0
664522939000: system.mem_ctrls: mytrace writeOverhead 44037505000 swap 3 write 686447 1558016
664522939000: system.mem_ctrls: mytrace2 totalAccess 11565180 totalHit 8625441 overflow 17 evictTime 0
666591417000: system.mem_ctrls: mytrace writeOverhead 44562800000 swap 3 write 697482 2665600
666591417000: system.mem_ctrls: mytrace2 totalAccess 11776342 totalHit 8822543 overflow 17 evictTime 0
690058445000: system.mem_ctrls: mytrace writeOverhead 49806295000 swap 3 write 716849 1283968
690058445000: system.mem_ctrls: mytrace2 totalAccess 13210393 totalHit 9382781 overflow 27 evictTime 0
691079790000: system.mem_ctrls: mytrace writeOverhead 50065360000 swap 3 write 722319 1868224
691079790000: system.mem_ctrls: mytrace2 totalAccess 13315643 totalHit 9481282 overflow 27 evictTime 0
695768496000: system.mem_ctrls: mytrace writeOverhead 51210860000 swap 3 write 737798 445120
695768496000: system.mem_ctrls: mytrace2 totalAccess 13707449 totalHit 9773283 overflow 27 evictTime 0
716061263000: system.mem_ctrls: mytrace writeOverhead 55720830000 swap 3 write 750207 1338048
716061263000: system.mem_ctrls: mytrace2 totalAccess 14909792 totalHit 10189252 overflow 35 evictTime 0
718644163000: system.mem_ctrls: mytrace writeOverhead 56380045000 swap 3 write 763998 2692736
718644163000: system.mem_ctrls: mytrace2 totalAccess 15173955 totalHit 10435399 overflow 35 evictTime 0
719167438000: system.mem_ctrls: mytrace writeOverhead 56508710000 swap 3 write 766701 2971904
719167438000: system.mem_ctrls: mytrace2 totalAccess 15226495 totalHit 10484475 overflow 35 evictTime 0
741192014000: system.mem_ctrls: mytrace writeOverhead 61397360000 swap 3 write 777909 756160
741192014000: system.mem_ctrls: mytrace2 totalAccess 16505490 totalHit 10894350 overflow 49 evictTime 0
741702940000: system.mem_ctrls: mytrace writeOverhead 61530650000 swap 3 write 780726 1049152
741702940000: system.mem_ctrls: mytrace2 totalAccess 16558469 totalHit 10943899 overflow 49 evictTime 0
745322677000: system.mem_ctrls: mytrace writeOverhead 62452915000 swap 3 write 800036 2962752
745322677000: system.mem_ctrls: mytrace2 totalAccess 16928252 totalHit 11288576 overflow 49 evictTime 0
745839098000: system.mem_ctrls: mytrace writeOverhead 62581295000 swap 3 write 802736 3236992
745839098000: system.mem_ctrls: mytrace2 totalAccess 16980763 totalHit 11337654 overflow 49 evictTime 0
769473070000: system.mem_ctrls: mytrace writeOverhead 67857120000 swap 3 write 822027 1921152
769473070000: system.mem_ctrls: mytrace2 totalAccess 18417959 totalHit 11894013 overflow 58 evictTime 0
771045797000: system.mem_ctrls: mytrace writeOverhead 68257495000 swap 3 write 830302 2672768
771045797000: system.mem_ctrls: mytrace2 totalAccess 18576857 totalHit 12041300 overflow 58 evictTime 0
771556741000: system.mem_ctrls: mytrace writeOverhead 68389415000 swap 3 write 833056 2950592
771556741000: system.mem_ctrls: mytrace2 totalAccess 18629693 totalHit 12090486 overflow 58 evictTime 0
794070929000: system.mem_ctrls: mytrace writeOverhead 73418125000 swap 3 write 847077 1037568
794070929000: system.mem_ctrls: mytrace2 totalAccess 19962175 totalHit 12548991 overflow 69 evictTime 0
796664819000: system.mem_ctrls: mytrace writeOverhead 74085040000 swap 3 write 860916 2366080
796664819000: system.mem_ctrls: mytrace2 totalAccess 20226982 totalHit 12794882 overflow 69 evictTime 0
798210832000: system.mem_ctrls: mytrace writeOverhead 74480520000 swap 3 write 869208 3206400
798210832000: system.mem_ctrls: mytrace2 totalAccess 20385488 totalHit 12942698 overflow 69 evictTime 0
821338595000: system.mem_ctrls: mytrace writeOverhead 79672505000 swap 3 write 886351 1635264
821338595000: system.mem_ctrls: mytrace2 totalAccess 21774126 totalHit 13450408 overflow 77 evictTime 0
824454301000: system.mem_ctrls: mytrace writeOverhead 80475405000 swap 3 write 902962 3188224
824454301000: system.mem_ctrls: mytrace2 totalAccess 22092125 totalHit 13745274 overflow 77 evictTime 0
851563310000: system.mem_ctrls: mytrace writeOverhead 86676830000 swap 3 write 938863 461760
851563310000: system.mem_ctrls: mytrace2 totalAccess 23858223 totalHit 14585388 overflow 89 evictTime 0
852706397000: system.mem_ctrls: mytrace writeOverhead 86935660000 swap 3 write 939307 446912
852706397000: system.mem_ctrls: mytrace2 totalAccess 23923526 totalHit 14603613 overflow 90 evictTime 0
874144016000: system.mem_ctrls: mytrace writeOverhead 91726035000 swap 3 write 953631 1513600
874144016000: system.mem_ctrls: mytrace2 totalAccess 25192654 totalHit 15047865 overflow 100 evictTime 0
876228154000: system.mem_ctrls: mytrace writeOverhead 92266475000 swap 3 write 964668 2534656
876228154000: system.mem_ctrls: mytrace2 totalAccess 25405019 totalHit 15243781 overflow 100 evictTime 0
876746862000: system.mem_ctrls: mytrace writeOverhead 92394485000 swap 3 write 967362 2824960
876746862000: system.mem_ctrls: mytrace2 totalAccess 25457495 totalHit 15292847 overflow 100 evictTime 0
877275363000: system.mem_ctrls: mytrace writeOverhead 92530680000 swap 3 write 970122 3060160
877275363000: system.mem_ctrls: mytrace2 totalAccess 25510685 totalHit 15341727 overflow 100 evictTime 0
897555968000: system.mem_ctrls: mytrace writeOverhead 97069245000 swap 3 write 980148 5497920
897555968000: system.mem_ctrls: mytrace2 totalAccess 26675011 totalHit 15696657 overflow 110 evictTime 0
902728820000: system.mem_ctrls: mytrace writeOverhead 98326835000 swap 3 write 998348 2483904
902728820000: system.mem_ctrls: mytrace2 totalAccess 27117340 totalHit 16039821 overflow 110 evictTime 0
904280165000: system.mem_ctrls: mytrace writeOverhead 98728825000 swap 3 write 1006685 3291584
904280165000: system.mem_ctrls: mytrace2 totalAccess 27276409 totalHit 16187432 overflow 110 evictTime 0
922711308000: system.mem_ctrls: mytrace writeOverhead 102832410000 swap 3 write 1014033 442624
922711308000: system.mem_ctrls: mytrace2 totalAccess 28318126 totalHit 16483586 overflow 119 evictTime 0
930250003000: system.mem_ctrls: mytrace writeOverhead 104653665000 swap 3 write 1037655 2953664
930250003000: system.mem_ctrls: mytrace2 totalAccess 28935162 totalHit 16935326 overflow 122 evictTime 0
953142932000: system.mem_ctrls: mytrace writeOverhead 109804075000 swap 3 write 1052301 982080
953142932000: system.mem_ctrls: mytrace2 totalAccess 30278773 totalHit 17387431 overflow 132 evictTime 0
954677459000: system.mem_ctrls: mytrace writeOverhead 110202340000 swap 3 write 1060570 1921984
954677459000: system.mem_ctrls: mytrace2 totalAccess 30437421 totalHit 17534917 overflow 132 evictTime 0
956265948000: system.mem_ctrls: mytrace writeOverhead 110614640000 swap 3 write 1068805 2577920
956265948000: system.mem_ctrls: mytrace2 totalAccess 30597241 totalHit 17680963 overflow 132 evictTime 0
957907988000: system.mem_ctrls: mytrace writeOverhead 111046415000 swap 3 write 1076946 3339648
957907988000: system.mem_ctrls: mytrace2 totalAccess 30759025 totalHit 17824284 overflow 132 evictTime 0
980264344000: system.mem_ctrls: mytrace writeOverhead 116038230000 swap 3 write 1089014 1180928
980264344000: system.mem_ctrls: mytrace2 totalAccess 32047394 totalHit 18231042 overflow 143 evictTime 0
980779951000: system.mem_ctrls: mytrace writeOverhead 116172215000 swap 3 write 1091787 1494592
980779951000: system.mem_ctrls: mytrace2 totalAccess 32100381 totalHit 18280229 overflow 143 evictTime 0
982887275000: system.mem_ctrls: mytrace writeOverhead 116720950000 swap 3 write 1102766 2465728
982887275000: system.mem_ctrls: mytrace2 totalAccess 32313356 totalHit 18475068 overflow 143 evictTime 0
990126963000: system.mem_ctrls: mytrace writeOverhead 118411775000 swap 3 write 1114094 446656
990126963000: system.mem_ctrls: mytrace2 totalAccess 32798247 totalHit 18720319 overflow 146 evictTime 0
998264625000: system.mem_ctrls: mytrace writeOverhead 120221975000 swap 3 write 1117345 441856
998264625000: system.mem_ctrls: mytrace2 totalAccess 33255531 totalHit 18848579 overflow 149 evictTime 0
1005242657000: system.mem_ctrls: mytrace writeOverhead 121770260000 swap 3 write 1120076 461888
1005242657000: system.mem_ctrls: mytrace2 totalAccess 33647144 totalHit 18958446 overflow 152 evictTime 0
1011128089000: system.mem_ctrls: mytrace writeOverhead 123250935000 swap 3 write 1145139 3168256
1011128089000: system.mem_ctrls: mytrace2 totalAccess 34190404 totalHit 19415581 overflow 153 evictTime 0
1034250564000: system.mem_ctrls: mytrace writeOverhead 128463315000 swap 3 write 1159948 1236416
1034250564000: system.mem_ctrls: mytrace2 totalAccess 35539858 totalHit 19863176 overflow 163 evictTime 0
1035281564000: system.mem_ctrls: mytrace writeOverhead 128733505000 swap 3 write 1165440 1881152
1035281564000: system.mem_ctrls: mytrace2 totalAccess 35645932 totalHit 19961025 overflow 163 evictTime 0
1035823701000: system.mem_ctrls: mytrace writeOverhead 128872400000 swap 3 write 1168155 2074752
1035823701000: system.mem_ctrls: mytrace2 totalAccess 35699299 totalHit 20009362 overflow 163 evictTime 0
1037407876000: system.mem_ctrls: mytrace writeOverhead 129287560000 swap 3 write 1176443 2791872
1037407876000: system.mem_ctrls: mytrace2 totalAccess 35859414 totalHit 20155535 overflow 163 evictTime 0
1037940947000: system.mem_ctrls: mytrace writeOverhead 129429625000 swap 3 write 1179215 1644608
1037940947000: system.mem_ctrls: mytrace2 totalAccess 35913081 totalHit 20204028 overflow 163 evictTime 0
1038453544000: system.mem_ctrls: mytrace writeOverhead 129564515000 swap 3 write 1181989 3285248
1038453544000: system.mem_ctrls: mytrace2 totalAccess 35966168 totalHit 20253124 overflow 163 evictTime 0
1039494150000: system.mem_ctrls: mytrace writeOverhead 129815475000 swap 3 write 1183024 446016
1039494150000: system.mem_ctrls: mytrace2 totalAccess 36030549 totalHit 20276959 overflow 163 evictTime 0
1060937332000: system.mem_ctrls: mytrace writeOverhead 134637820000 swap 3 write 1194115 1118528
1060937332000: system.mem_ctrls: mytrace2 totalAccess 37262043 totalHit 20652735 overflow 174 evictTime 0
1061452362000: system.mem_ctrls: mytrace writeOverhead 134774250000 swap 3 write 1196923 1417792
1061452362000: system.mem_ctrls: mytrace2 totalAccess 37315238 totalHit 20701994 overflow 174 evictTime 0
1064089991000: system.mem_ctrls: mytrace writeOverhead 135469200000 swap 3 write 1210715 2679552
1064089991000: system.mem_ctrls: mytrace2 totalAccess 37582202 totalHit 20945343 overflow 174 evictTime 0
1075167963000: system.mem_ctrls: mytrace writeOverhead 138026940000 swap 3 write 1222397 441856
1075167963000: system.mem_ctrls: mytrace2 totalAccess 38271727 totalHit 21228559 overflow 178 evictTime 0
1085665237000: system.mem_ctrls: mytrace writeOverhead 140368960000 swap 3 write 1226617 1274304
1085665237000: system.mem_ctrls: mytrace2 totalAccess 38861027 totalHit 21392266 overflow 182 evictTime 0
1087685244000: system.mem_ctrls: mytrace writeOverhead 140824175000 swap 3 write 1228539 940480
1087685244000: system.mem_ctrls: mytrace2 totalAccess 38985318 totalHit 21443245 overflow 183 evictTime 0
1088716285000: system.mem_ctrls: mytrace writeOverhead 141103265000 swap 3 write 1234079 1604800
1088716285000: system.mem_ctrls: mytrace2 totalAccess 39092091 totalHit 21540779 overflow 183 evictTime 0
1096962176000: system.mem_ctrls: mytrace writeOverhead 143119705000 swap 3 write 1255790 1275520
1096962176000: system.mem_ctrls: mytrace2 totalAccess 39727541 totalHit 21958729 overflow 188 evictTime 0
1108656646000: system.mem_ctrls: mytrace writeOverhead 145723950000 swap 3 write 1260549 444672
1108656646000: system.mem_ctrls: mytrace2 totalAccess 40382487 totalHit 22141182 overflow 193 evictTime 0
1115599042000: system.mem_ctrls: mytrace writeOverhead 147313280000 swap 3 write 1268301 1398336
1115599042000: system.mem_ctrls: mytrace2 totalAccess 40817467 totalHit 22327786 overflow 194 evictTime 0
1116112698000: system.mem_ctrls: mytrace writeOverhead 147454490000 swap 3 write 1271070 1816320
1116112698000: system.mem_ctrls: mytrace2 totalAccess 40870971 totalHit 22376424 overflow 194 evictTime 0
1116647939000: system.mem_ctrls: mytrace writeOverhead 147588985000 swap 3 write 1273753 655360
1116647939000: system.mem_ctrls: mytrace2 totalAccess 40923950 totalHit 22424896 overflow 194 evictTime 0
1117186680000: system.mem_ctrls: mytrace writeOverhead 147731435000 swap 3 write 1276466 811200
1117186680000: system.mem_ctrls: mytrace2 totalAccess 40977590 totalHit 22472948 overflow 194 evictTime 0
1138587766000: system.mem_ctrls: mytrace writeOverhead 152663450000 swap 3 write 1297891 448320
1138587766000: system.mem_ctrls: mytrace2 totalAccess 42298951 totalHit 23001640 overflow 204 evictTime 0
1144530738000: system.mem_ctrls: mytrace writeOverhead 154114955000 swap 3 write 1313739 2282496
1144530738000: system.mem_ctrls: mytrace2 totalAccess 42759273 totalHit 23307828 overflow 206 evictTime 0
1163797750000: system.mem_ctrls: mytrace writeOverhead 158575315000 swap 3 write 1333355 442816
1163797750000: system.mem_ctrls: mytrace2 totalAccess 43954301 totalHit 23788491 overflow 215 evictTime 0
1169700212000: system.mem_ctrls: mytrace writeOverhead 159938730000 swap 3 write 1340025 1364352
1169700212000: system.mem_ctrls: mytrace2 totalAccess 44326838 totalHit 23948846 overflow 219 evictTime 0
1170751418000: system.mem_ctrls: mytrace writeOverhead 160217225000 swap 3 write 1345453 2018176
1170751418000: system.mem_ctrls: mytrace2 totalAccess 44433497 totalHit 24045599 overflow 219 evictTime 0
1172885887000: system.mem_ctrls: mytrace writeOverhead 160789060000 swap 3 write 1356528 2873728
1172885887000: system.mem_ctrls: mytrace2 totalAccess 44648468 totalHit 24239212 overflow 219 evictTime 0
1173988745000: system.mem_ctrls: mytrace writeOverhead 161093550000 swap 3 write 1362023 3336640
1173988745000: system.mem_ctrls: mytrace2 totalAccess 44757714 totalHit 24333907 overflow 219 evictTime 0
1196566601000: system.mem_ctrls: mytrace writeOverhead 166193980000 swap 3 write 1374652 1175104
1196566601000: system.mem_ctrls: mytrace2 totalAccess 46056010 totalHit 24735063 overflow 228 evictTime 0
1197601909000: system.mem_ctrls: mytrace writeOverhead 166479115000 swap 3 write 1380180 1909760
1197601909000: system.mem_ctrls: mytrace2 totalAccess 46163205 totalHit 24832078 overflow 228 evictTime 0
1198680518000: system.mem_ctrls: mytrace writeOverhead 166764260000 swap 3 write 1385664 2249600
1198680518000: system.mem_ctrls: mytrace2 totalAccess 46270547 totalHit 24928590 overflow 228 evictTime 0
1199226223000: system.mem_ctrls: mytrace writeOverhead 166905605000 swap 3 write 1388372 2481856
1199226223000: system.mem_ctrls: mytrace2 totalAccess 46324126 totalHit 24976664 overflow 228 evictTime 0
1199758491000: system.mem_ctrls: mytrace writeOverhead 167047295000 swap 3 write 1391124 2722176
1199758491000: system.mem_ctrls: mytrace2 totalAccess 46377772 totalHit 25025024 overflow 228 evictTime 0
1200820388000: system.mem_ctrls: mytrace writeOverhead 167333600000 swap 3 write 1396665 3155840
1200820388000: system.mem_ctrls: mytrace2 totalAccess 46485293 totalHit 25121817 overflow 228 evictTime 0
1223560789000: system.mem_ctrls: mytrace writeOverhead 172486155000 swap 3 write 1409122 860864
1223560789000: system.mem_ctrls: mytrace2 totalAccess 47788348 totalHit 25516764 overflow 241 evictTime 0
1224608115000: system.mem_ctrls: mytrace writeOverhead 172778440000 swap 3 write 1414628 1680704
1224608115000: system.mem_ctrls: mytrace2 totalAccess 47896042 totalHit 25613102 overflow 241 evictTime 0
1225132833000: system.mem_ctrls: mytrace writeOverhead 172916105000 swap 3 write 1417387 1988992
1225132833000: system.mem_ctrls: mytrace2 totalAccess 47949285 totalHit 25661918 overflow 241 evictTime 0
1228339213000: system.mem_ctrls: mytrace writeOverhead 173775210000 swap 3 write 1433876 3222912
1228339213000: system.mem_ctrls: mytrace2 totalAccess 48271679 totalHit 25951396 overflow 242 evictTime 0
1245497452000: system.mem_ctrls: mytrace writeOverhead 177681450000 swap 3 write 1442962 445888
1245497452000: system.mem_ctrls: mytrace2 totalAccess 49253524 totalHit 26240878 overflow 247 evictTime 0
1246651501000: system.mem_ctrls: mytrace writeOverhead 177946210000 swap 3 write 1443491 444864
1246651501000: system.mem_ctrls: mytrace2 totalAccess 49319167 totalHit 26259387 overflow 250 evictTime 0
1253081303000: system.mem_ctrls: mytrace writeOverhead 179503840000 swap 3 write 1457572 807040
1253081303000: system.mem_ctrls: mytrace2 totalAccess 49789823 totalHit 26541056 overflow 251 evictTime 0
1254691020000: system.mem_ctrls: mytrace writeOverhead 179937970000 swap 3 write 1465848 1492800
1254691020000: system.mem_ctrls: mytrace2 totalAccess 49951466 totalHit 26685606 overflow 251 evictTime 0
1255229880000: system.mem_ctrls: mytrace writeOverhead 180082265000 swap 3 write 1468604 1692992
1255229880000: system.mem_ctrls: mytrace2 totalAccess 50005311 totalHit 26733792 overflow 251 evictTime 0
1268441005000: system.mem_ctrls: mytrace writeOverhead 183109905000 swap 3 write 1477892 461760
1268441005000: system.mem_ctrls: mytrace2 totalAccess 50780744 totalHit 26991547 overflow 256 evictTime 0
1273118498000: system.mem_ctrls: mytrace writeOverhead 184159845000 swap 3 write 1479970 445312
1273118498000: system.mem_ctrls: mytrace2 totalAccess 51043219 totalHit 27065352 overflow 260 evictTime 0
1278440423000: system.mem_ctrls: mytrace writeOverhead 185381990000 swap 3 write 1484259 997312
1278440423000: system.mem_ctrls: mytrace2 totalAccess 51362180 totalHit 27180248 overflow 262 evictTime 0
1278963848000: system.mem_ctrls: mytrace writeOverhead 185529275000 swap 3 write 1487008 1462016
1278963848000: system.mem_ctrls: mytrace2 totalAccess 51416102 totalHit 27228308 overflow 262 evictTime 0
1287956433000: system.mem_ctrls: mytrace writeOverhead 187757485000 swap 3 write 1511195 448192
1287956433000: system.mem_ctrls: mytrace2 totalAccess 52111330 totalHit 27686130 overflow 266 evictTime 0
1290288104000: system.mem_ctrls: mytrace writeOverhead 188280585000 swap 3 write 1512311 445312
1290288104000: system.mem_ctrls: mytrace2 totalAccess 52242430 totalHit 27723774 overflow 267 evictTime 0
1300835438000: system.mem_ctrls: mytrace writeOverhead 190642680000 swap 3 write 1517289 447232
1300835438000: system.mem_ctrls: mytrace2 totalAccess 52833120 totalHit 27892000 overflow 272 evictTime 0
1308227509000: system.mem_ctrls: mytrace writeOverhead 192441600000 swap 3 write 1532835 2251712
1308227509000: system.mem_ctrls: mytrace2 totalAccess 53366965 totalHit 28202005 overflow 273 evictTime 0
1309847610000: system.mem_ctrls: mytrace writeOverhead 192875030000 swap 3 write 1541053 2927168
1309847610000: system.mem_ctrls: mytrace2 totalAccess 53528526 totalHit 28346175 overflow 273 evictTime 0
1333655128000: system.mem_ctrls: mytrace writeOverhead 198335435000 swap 3 write 1559628 1188800
1333655128000: system.mem_ctrls: mytrace2 totalAccess 54940333 totalHit 28840719 overflow 285 evictTime 0
1335248348000: system.mem_ctrls: mytrace writeOverhead 198772720000 swap 3 write 1567863 742720
1335248348000: system.mem_ctrls: mytrace2 totalAccess 55101886 totalHit 28985024 overflow 285 evictTime 0
1337939061000: system.mem_ctrls: mytrace writeOverhead 199500760000 swap 3 write 1581653 3151680
1337939061000: system.mem_ctrls: mytrace2 totalAccess 55371641 totalHit 29225560 overflow 285 evictTime 0
1362245186000: system.mem_ctrls: mytrace writeOverhead 205121485000 swap 3 write 1602909 629568
1362245186000: system.mem_ctrls: mytrace2 totalAccess 56838533 totalHit 29766735 overflow 297 evictTime 0
1363323696000: system.mem_ctrls: mytrace writeOverhead 205414145000 swap 3 write 1608469 2338112
1363323696000: system.mem_ctrls: mytrace2 totalAccess 56946548 totalHit 29863182 overflow 297 evictTime 0
1363862821000: system.mem_ctrls: mytrace writeOverhead 205559285000 swap 3 write 1611195 2544960
1363862821000: system.mem_ctrls: mytrace2 totalAccess 57000444 totalHit 29911079 overflow 297 evictTime 0
1365477931000: system.mem_ctrls: mytrace writeOverhead 205997690000 swap 3 write 1619466 3179136
1365477931000: system.mem_ctrls: mytrace2 totalAccess 57162347 totalHit 30055322 overflow 298 evictTime 0
1389905651000: system.mem_ctrls: mytrace writeOverhead 211633625000 swap 3 write 1640791 645504
1389905651000: system.mem_ctrls: mytrace2 totalAccess 58630964 totalHit 30595663 overflow 307 evictTime 0
1391521312000: system.mem_ctrls: mytrace writeOverhead 212074035000 swap 3 write 1649112 1208960
1391521312000: system.mem_ctrls: mytrace2 totalAccess 58793113 totalHit 30740058 overflow 307 evictTime 0
1392067087000: system.mem_ctrls: mytrace writeOverhead 212218430000 swap 3 write 1651824 2777088
1392067087000: system.mem_ctrls: mytrace2 totalAccess 58846945 totalHit 30787908 overflow 307 evictTime 0
1419237954000: system.mem_ctrls: mytrace writeOverhead 218598060000 swap 3 write 1686981 1208448
1419237954000: system.mem_ctrls: mytrace2 totalAccess 60586254 totalHit 31567726 overflow 318 evictTime 0
1428604621000: system.mem_ctrls: mytrace writeOverhead 220830520000 swap 3 write 1700928 446016
1428604621000: system.mem_ctrls: mytrace2 totalAccess 61203015 totalHit 31861848 overflow 322 evictTime 0
1434399837000: system.mem_ctrls: mytrace writeOverhead 222146860000 swap 3 write 1703769 448704
1434399837000: system.mem_ctrls: mytrace2 totalAccess 61531564 totalHit 31955562 overflow 325 evictTime 0
1444079198000: system.mem_ctrls: mytrace writeOverhead 224383090000 swap 3 write 1711381 1308928
1444079198000: system.mem_ctrls: mytrace2 totalAccess 62109209 totalHit 32158150 overflow 328 evictTime 0
1445141130000: system.mem_ctrls: mytrace writeOverhead 224679345000 swap 3 write 1716853 2037760
1445141130000: system.mem_ctrls: mytrace2 totalAccess 62217220 totalHit 32253888 overflow 328 evictTime 0
1446762007000: system.mem_ctrls: mytrace writeOverhead 225120085000 swap 3 write 1725139 1225408
1446762007000: system.mem_ctrls: mytrace2 totalAccess 62379358 totalHit 32398011 overflow 328 evictTime 0
1467804217000: system.mem_ctrls: mytrace writeOverhead 229990835000 swap 3 write 1744888 447168
1467804217000: system.mem_ctrls: mytrace2 totalAccess 63653574 totalHit 32879812 overflow 338 evictTime 0
1468952125000: system.mem_ctrls: mytrace writeOverhead 230254970000 swap 3 write 1745532 461696
1468952125000: system.mem_ctrls: mytrace2 totalAccess 63719374 totalHit 32899028 overflow 338 evictTime 0
1503917539000: system.mem_ctrls: mytrace writeOverhead 238678635000 swap 3 write 1809343 3149184
1503917539000: system.mem_ctrls: mytrace2 totalAccess 66133541 totalHit 34192665 overflow 353 evictTime 0
1513905618000: system.mem_ctrls: mytrace writeOverhead 240972765000 swap 3 write 1816574 445696
1513905618000: system.mem_ctrls: mytrace2 totalAccess 66717220 totalHit 34385992 overflow 356 evictTime 0
1557158619000: system.mem_ctrls: mytrace writeOverhead 251209070000 swap 3 write 1874818 983936
1557158619000: system.mem_ctrls: mytrace2 totalAccess 69509252 totalHit 35656002 overflow 374 evictTime 0
1567971745000: system.mem_ctrls: mytrace writeOverhead 253824410000 swap 3 write 1893283 461696
1567971745000: system.mem_ctrls: mytrace2 totalAccess 70242763 totalHit 36029414 overflow 378 evictTime 0
1583386848000: system.mem_ctrls: mytrace writeOverhead 257372110000 swap 3 write 1905016 1688448
1583386848000: system.mem_ctrls: mytrace2 totalAccess 71147350 totalHit 36337195 overflow 385 evictTime 0
1586092301000: system.mem_ctrls: mytrace writeOverhead 258105725000 swap 3 write 1918744 1347200
1586092301000: system.mem_ctrls: mytrace2 totalAccess 71417309 totalHit 36577017 overflow 385 evictTime 0
1588748134000: system.mem_ctrls: mytrace writeOverhead 258805525000 swap 3 write 1928235 2893376
1588748134000: system.mem_ctrls: mytrace2 totalAccess 71644386 totalHit 36745767 overflow 387 evictTime 0
1603835533000: system.mem_ctrls: mytrace writeOverhead 262228015000 swap 3 write 1936435 443456
1603835533000: system.mem_ctrls: mytrace2 totalAccess 72498017 totalHit 36995645 overflow 393 evictTime 0
1615488484000: system.mem_ctrls: mytrace writeOverhead 265126835000 swap 3 write 1965804 3266432
1615488484000: system.mem_ctrls: mytrace2 totalAccess 73376417 totalHit 37551360 overflow 397 evictTime 0
1640371872000: system.mem_ctrls: mytrace writeOverhead 271008690000 swap 3 write 1992923 2133440
1640371872000: system.mem_ctrls: mytrace2 totalAccess 74903586 totalHit 38158530 overflow 417 evictTime 0
1665954621000: system.mem_ctrls: mytrace writeOverhead 277027410000 swap 3 write 2022538 1021568
1665954621000: system.mem_ctrls: mytrace2 totalAccess 76484535 totalHit 38811962 overflow 439 evictTime 0
1667031015000: system.mem_ctrls: mytrace writeOverhead 277351505000 swap 3 write 2027986 2004992
1667031015000: system.mem_ctrls: mytrace2 totalAccess 76594548 totalHit 38905513 overflow 439 evictTime 0
1667577553000: system.mem_ctrls: mytrace writeOverhead 277503210000 swap 3 write 2030728 795712
1667577553000: system.mem_ctrls: mytrace2 totalAccess 76648906 totalHit 38953080 overflow 439 evictTime 0
1668145973000: system.mem_ctrls: mytrace writeOverhead 277669055000 swap 3 write 2033494 2338944
1668145973000: system.mem_ctrls: mytrace2 totalAccess 76704575 totalHit 38999527 overflow 439 evictTime 0
1668729371000: system.mem_ctrls: mytrace writeOverhead 277848980000 swap 3 write 2036192 1118080
1668729371000: system.mem_ctrls: mytrace2 totalAccess 76761157 totalHit 39044514 overflow 440 evictTime 0
1670895296000: system.mem_ctrls: mytrace writeOverhead 278440670000 swap 3 write 2047196 3238720
1670895296000: system.mem_ctrls: mytrace2 totalAccess 76977638 totalHit 39236038 overflow 440 evictTime 0
1682185860000: system.mem_ctrls: mytrace writeOverhead 281099925000 swap 3 write 2055352 445120
1682185860000: system.mem_ctrls: mytrace2 totalAccess 77634851 totalHit 39442804 overflow 450 evictTime 0
1695815422000: system.mem_ctrls: mytrace writeOverhead 284401400000 swap 3 write 2073558 2268928
1695815422000: system.mem_ctrls: mytrace2 totalAccess 78511338 totalHit 39830739 overflow 469 evictTime 0
1697543922000: system.mem_ctrls: mytrace writeOverhead 284920040000 swap 3 write 2081776 2769472
1697543922000: system.mem_ctrls: mytrace2 totalAccess 78679847 totalHit 39967943 overflow 469 evictTime 0
1698627751000: system.mem_ctrls: mytrace writeOverhead 285216385000 swap 3 write 2087298 1798272
1698627751000: system.mem_ctrls: mytrace2 totalAccess 78788137 totalHit 40063808 overflow 469 evictTime 0
1699302260000: system.mem_ctrls: mytrace writeOverhead 285406165000 swap 3 write 2089738 1530560
1699302260000: system.mem_ctrls: mytrace2 totalAccess 78846242 totalHit 40105183 overflow 469 evictTime 0
1714090924000: system.mem_ctrls: mytrace writeOverhead 288899920000 swap 3 write 2099798 2424384
1714090924000: system.mem_ctrls: mytrace2 totalAccess 79702534 totalHit 40367463 overflow 497 evictTime 0
1722366238000: system.mem_ctrls: mytrace writeOverhead 290915080000 swap 3 write 2108405 1617984
1722366238000: system.mem_ctrls: mytrace2 totalAccess 80215488 totalHit 40562564 overflow 509 evictTime 0
1724656469000: system.mem_ctrls: mytrace writeOverhead 291609770000 swap 3 write 2119282 1067520
1724656469000: system.mem_ctrls: mytrace2 totalAccess 80440074 totalHit 40744968 overflow 510 evictTime 0
1725205008000: system.mem_ctrls: mytrace writeOverhead 291765335000 swap 3 write 2122067 2666560
1725205008000: system.mem_ctrls: mytrace2 totalAccess 80494805 totalHit 40792503 overflow 510 evictTime 0
1725747441000: system.mem_ctrls: mytrace writeOverhead 291916710000 swap 3 write 2124814 2840192
1725747441000: system.mem_ctrls: mytrace2 totalAccess 80549163 totalHit 40840106 overflow 510 evictTime 0
1737844649000: system.mem_ctrls: mytrace writeOverhead 294855605000 swap 3 write 2139469 446784
1737844649000: system.mem_ctrls: mytrace2 totalAccess 81311619 totalHit 41153613 overflow 527 evictTime 0
1738977913000: system.mem_ctrls: mytrace writeOverhead 295123035000 swap 3 write 2140226 442432
1738977913000: system.mem_ctrls: mytrace2 totalAccess 81377428 totalHit 41173780 overflow 529 evictTime 0
1744664783000: system.mem_ctrls: mytrace writeOverhead 296459775000 swap 3 write 2144116 447488
1744664783000: system.mem_ctrls: mytrace2 totalAccess 81706204 totalHit 41275298 overflow 538 evictTime 0
1752940646000: system.mem_ctrls: mytrace writeOverhead 298639010000 swap 3 write 2162402 1092160
1752940646000: system.mem_ctrls: mytrace2 totalAccess 82312521 totalHit 41614824 overflow 547 evictTime 0
1754036849000: system.mem_ctrls: mytrace writeOverhead 298945330000 swap 3 write 2167872 2869952
1754036849000: system.mem_ctrls: mytrace2 totalAccess 82421501 totalHit 41709581 overflow 547 evictTime 0
1754576920000: system.mem_ctrls: mytrace writeOverhead 299093410000 swap 3 write 2170660 3017664
1754576920000: system.mem_ctrls: mytrace2 totalAccess 82475659 totalHit 41757712 overflow 547 evictTime 0
1780149621000: system.mem_ctrls: mytrace writeOverhead 305296665000 swap 3 write 2199887 2214272
1780149621000: system.mem_ctrls: mytrace2 totalAccess 84070731 totalHit 42393811 overflow 586 evictTime 0
1781960874000: system.mem_ctrls: mytrace writeOverhead 305885745000 swap 3 write 2208025 2696832
1781960874000: system.mem_ctrls: mytrace2 totalAccess 84244920 totalHit 42524706 overflow 588 evictTime 0
1786885042000: system.mem_ctrls: mytrace writeOverhead 307143515000 swap 3 write 2219192 3455424
1786885042000: system.mem_ctrls: mytrace2 totalAccess 84605496 totalHit 42733173 overflow 591 evictTime 0
1790256911000: system.mem_ctrls: mytrace writeOverhead 307946645000 swap 3 write 2221575 446080
1790256911000: system.mem_ctrls: mytrace2 totalAccess 84802583 totalHit 42794717 overflow 599 evictTime 0
1807293305000: system.mem_ctrls: mytrace writeOverhead 312055015000 swap 3 write 2237819 1865408
1807293305000: system.mem_ctrls: mytrace2 totalAccess 85837105 totalHit 43168579 overflow 621 evictTime 0
1810224248000: system.mem_ctrls: mytrace writeOverhead 312980340000 swap 3 write 2251482 2755456
1810224248000: system.mem_ctrls: mytrace2 totalAccess 86122155 totalHit 43392802 overflow 630 evictTime 0
1811312404000: system.mem_ctrls: mytrace writeOverhead 313277560000 swap 3 write 2256973 3131968
1811312404000: system.mem_ctrls: mytrace2 totalAccess 86230474 totalHit 43488389 overflow 630 evictTime 0
1819780347000: system.mem_ctrls: mytrace writeOverhead 315328155000 swap 3 write 2265193 461888
1819780347000: system.mem_ctrls: mytrace2 totalAccess 86747610 totalHit 43676002 overflow 643 evictTime 0
1826506153000: system.mem_ctrls: mytrace writeOverhead 316934185000 swap 3 write 2270137 461440
1826506153000: system.mem_ctrls: mytrace2 totalAccess 87142131 totalHit 43800423 overflow 655 evictTime 0
1827623817000: system.mem_ctrls: mytrace writeOverhead 317205165000 swap 3 write 2270972 444992
1827623817000: system.mem_ctrls: mytrace2 totalAccess 87208047 totalHit 43821131 overflow 659 evictTime 0
1837389557000: system.mem_ctrls: mytrace writeOverhead 319780530000 swap 3 write 2289075 2746624
1837389557000: system.mem_ctrls: mytrace2 totalAccess 87891977 totalHit 44161211 overflow 671 evictTime 0
1854779627000: system.mem_ctrls: mytrace writeOverhead 324099790000 swap 3 write 2313851 448768
1854779627000: system.mem_ctrls: mytrace2 totalAccess 89025412 totalHit 44664299 overflow 697 evictTime 0
1863513685000: system.mem_ctrls: mytrace writeOverhead 326238060000 swap 3 write 2321576 1005760
1863513685000: system.mem_ctrls: mytrace2 totalAccess 89549671 totalHit 44841009 overflow 716 evictTime 0
1868643955000: system.mem_ctrls: mytrace writeOverhead 327817170000 swap 3 write 2346164 3243968
1868643955000: system.mem_ctrls: mytrace2 totalAccess 90055759 totalHit 45251568 overflow 727 evictTime 0
1870713220000: system.mem_ctrls: mytrace writeOverhead 328339985000 swap 3 write 2348710 2238272
1870713220000: system.mem_ctrls: mytrace2 totalAccess 90185829 totalHit 45301754 overflow 729 evictTime 0
1881875512000: system.mem_ctrls: mytrace writeOverhead 331043205000 swap 3 write 2357611 445888
1881875512000: system.mem_ctrls: mytrace2 totalAccess 90844685 totalHit 45512967 overflow 754 evictTime 0
1886347557000: system.mem_ctrls: mytrace writeOverhead 332107360000 swap 3 write 2360905 442432
1886347557000: system.mem_ctrls: mytrace2 totalAccess 91107185 totalHit 45596259 overflow 760 evictTime 0
1895946421000: system.mem_ctrls: mytrace writeOverhead 334749345000 swap 3 write 2384268 1422272
1895946421000: system.mem_ctrls: mytrace2 totalAccess 91834733 totalHit 46015001 overflow 785 evictTime 0
1897028195000: system.mem_ctrls: mytrace writeOverhead 335049795000 swap 3 write 2389817 1820608
1897028195000: system.mem_ctrls: mytrace2 totalAccess 91943282 totalHit 46110822 overflow 786 evictTime 0
1907896903000: system.mem_ctrls: mytrace writeOverhead 337712020000 swap 3 write 2399591 461952
1907896903000: system.mem_ctrls: mytrace2 totalAccess 92598450 totalHit 46332769 overflow 811 evictTime 0
1920788702000: system.mem_ctrls: mytrace writeOverhead 340853625000 swap 3 write 2411214 1368832
1920788702000: system.mem_ctrls: mytrace2 totalAccess 93378262 totalHit 46604418 overflow 841 evictTime 0
1926069594000: system.mem_ctrls: mytrace writeOverhead 342492470000 swap 3 write 2435515 448576
1926069594000: system.mem_ctrls: mytrace2 totalAccess 93888994 totalHit 47008005 overflow 865 evictTime 0
1937164027000: system.mem_ctrls: mytrace writeOverhead 345252995000 swap 3 write 2444868 448448
1937164027000: system.mem_ctrls: mytrace2 totalAccess 94551495 totalHit 47218877 overflow 900 evictTime 0
1949316187000: system.mem_ctrls: mytrace writeOverhead 348213940000 swap 3 write 2455229 860480
1949316187000: system.mem_ctrls: mytrace2 totalAccess 95274822 totalHit 47456929 overflow 923 evictTime 0
1950405337000: system.mem_ctrls: mytrace writeOverhead 348546595000 swap 3 write 2460666 1967360
1950405337000: system.mem_ctrls: mytrace2 totalAccess 95385504 totalHit 47549725 overflow 923 evictTime 0
1951619636000: system.mem_ctrls: mytrace writeOverhead 348957095000 swap 3 write 2466119 2138752
1951619636000: system.mem_ctrls: mytrace2 totalAccess 95502526 totalHit 47636291 overflow 933 evictTime 0
1956517401000: system.mem_ctrls: mytrace writeOverhead 350348965000 swap 3 write 2482299 445952
1956517401000: system.mem_ctrls: mytrace2 totalAccess 95912128 totalHit 47915830 overflow 954 evictTime 0
1975699807000: system.mem_ctrls: mytrace writeOverhead 354921970000 swap 3 write 2496522 447808
1975699807000: system.mem_ctrls: mytrace2 totalAccess 97032208 totalHit 48267744 overflow 983 evictTime 0
1978298872000: system.mem_ctrls: mytrace writeOverhead 355594995000 swap 3 write 2501401 1704128
1978298872000: system.mem_ctrls: mytrace2 totalAccess 97215789 totalHit 48362984 overflow 985 evictTime 0
1978843059000: system.mem_ctrls: mytrace writeOverhead 355755600000 swap 3 write 2504142 2017664
1978843059000: system.mem_ctrls: mytrace2 totalAccess 97270693 totalHit 48409992 overflow 986 evictTime 0
1979393353000: system.mem_ctrls: mytrace writeOverhead 355916670000 swap 3 write 2506890 2231488
1979393353000: system.mem_ctrls: mytrace2 totalAccess 97325606 totalHit 48457051 overflow 988 evictTime 0
1984975679000: system.mem_ctrls: mytrace writeOverhead 357583480000 swap 3 write 2525771 447040
1984975679000: system.mem_ctrls: mytrace2 totalAccess 97798994 totalHit 48774482 overflow 1023 evictTime 0
2002915727000: system.mem_ctrls: mytrace writeOverhead 361934750000 swap 3 write 2539676 1382016
2002915727000: system.mem_ctrls: mytrace2 totalAccess 98855109 totalHit 49107720 overflow 1069 evictTime 0
2009787805000: system.mem_ctrls: mytrace writeOverhead 363950655000 swap 3 write 2558677 2579776
2009787805000: system.mem_ctrls: mytrace2 totalAccess 99401215 totalHit 49433271 overflow 1098 evictTime 0
2010348085000: system.mem_ctrls: mytrace writeOverhead 364107480000 swap 3 write 2561363 2794688
2010348085000: system.mem_ctrls: mytrace2 totalAccess 99455859 totalHit 49480102 overflow 1099 evictTime 0
2021114877000: system.mem_ctrls: mytrace writeOverhead 366794555000 swap 3 write 2575839 450048
2021114877000: system.mem_ctrls: mytrace2 totalAccess 100153107 totalHit 49777808 overflow 1121 evictTime 0
2022242362000: system.mem_ctrls: mytrace writeOverhead 367058930000 swap 3 write 2576645 461696
2022242362000: system.mem_ctrls: mytrace2 totalAccess 100218761 totalHit 49798538 overflow 1121 evictTime 0
2026763489000: system.mem_ctrls: mytrace writeOverhead 368133540000 swap 3 write 2579862 3357184
2026763489000: system.mem_ctrls: mytrace2 totalAccess 100482177 totalHit 49880410 overflow 1128 evictTime 0
2029042645000: system.mem_ctrls: mytrace writeOverhead 368664785000 swap 3 write 2581410 773824
2029042645000: system.mem_ctrls: mytrace2 totalAccess 100613529 totalHit 49921176 overflow 1130 evictTime 0
2031305089000: system.mem_ctrls: mytrace writeOverhead 369207180000 swap 3 write 2582985 442048
2031305089000: system.mem_ctrls: mytrace2 totalAccess 100745680 totalHit 49961425 overflow 1135 evictTime 0
2033574282000: system.mem_ctrls: mytrace writeOverhead 369746160000 swap 3 write 2584490 449856
2033574282000: system.mem_ctrls: mytrace2 totalAccess 100877764 totalHit 50001092 overflow 1137 evictTime 0
2037609059000: system.mem_ctrls: mytrace writeOverhead 371035905000 swap 3 write 2599095 2370560
2037609059000: system.mem_ctrls: mytrace2 totalAccess 101235111 totalHit 50240500 overflow 1157 evictTime 0
2038165438000: system.mem_ctrls: mytrace writeOverhead 371203400000 swap 3 write 2601847 2608000
2038165438000: system.mem_ctrls: mytrace2 totalAccess 101290678 totalHit 50286935 overflow 1157 evictTime 0
2044075448000: system.mem_ctrls: mytrace writeOverhead 372700880000 swap 3 write 2614300 449408
2044075448000: system.mem_ctrls: mytrace2 totalAccess 101713976 totalHit 50522861 overflow 1165 evictTime 0
2063094479000: system.mem_ctrls: mytrace writeOverhead 377195920000 swap 3 write 2628474 1125440
2063094479000: system.mem_ctrls: mytrace2 totalAccess 102826910 totalHit 50881382 overflow 1191 evictTime 0
2081563914000: system.mem_ctrls: mytrace writeOverhead 382123240000 swap 3 write 2664343 447104
2081563914000: system.mem_ctrls: mytrace2 totalAccess 104131320 totalHit 51542381 overflow 1239 evictTime 0
2087236269000: system.mem_ctrls: mytrace writeOverhead 383452925000 swap 3 write 2668283 9278848
2087236269000: system.mem_ctrls: mytrace2 totalAccess 104459622 totalHit 51644925 overflow 1245 evictTime 0
2093960231000: system.mem_ctrls: mytrace writeOverhead 385303600000 swap 3 write 2682958 1258048
2093960231000: system.mem_ctrls: mytrace2 totalAccess 104951831 totalHit 51909488 overflow 1274 evictTime 0
2095829081000: system.mem_ctrls: mytrace writeOverhead 385949240000 swap 3 write 2691048 2797888
2095829081000: system.mem_ctrls: mytrace2 totalAccess 105130156 totalHit 52035841 overflow 1282 evictTime 0
2104431689000: system.mem_ctrls: mytrace writeOverhead 388109165000 swap 3 write 2703763 11205824
2104431689000: system.mem_ctrls: mytrace2 totalAccess 105695678 totalHit 52291313 overflow 1309 evictTime 0
2110028859000: system.mem_ctrls: mytrace writeOverhead 389454995000 swap 3 write 2708023 445824
2110028859000: system.mem_ctrls: mytrace2 totalAccess 106025051 totalHit 52395529 overflow 1316 evictTime 0
2111149413000: system.mem_ctrls: mytrace writeOverhead 389723190000 swap 3 write 2708869 2838208
2111149413000: system.mem_ctrls: mytrace2 totalAccess 106090756 totalHit 52416463 overflow 1318 evictTime 0
2112851986000: system.mem_ctrls: mytrace writeOverhead 390376200000 swap 3 write 2713866 442496
2112851986000: system.mem_ctrls: mytrace2 totalAccess 106230007 totalHit 52477071 overflow 1324 evictTime 0
2123484678000: system.mem_ctrls: mytrace writeOverhead 393155290000 swap 3 write 2733516 2630272
2123484678000: system.mem_ctrls: mytrace2 totalAccess 106971178 totalHit 52852025 overflow 1356 evictTime 0
2126013132000: system.mem_ctrls: mytrace writeOverhead 394053730000 swap 3 write 2744389 1736960
2126013132000: system.mem_ctrls: mytrace2 totalAccess 107212138 totalHit 53017992 overflow 1373 evictTime 0
2126575307000: system.mem_ctrls: mytrace writeOverhead 394215525000 swap 3 write 2747107 3326400
2126575307000: system.mem_ctrls: mytrace2 totalAccess 107267145 totalHit 53064720 overflow 1378 evictTime 0
2128750723000: system.mem_ctrls: mytrace writeOverhead 394764630000 swap 3 write 2749043 2694528
2128750723000: system.mem_ctrls: mytrace2 totalAccess 107399505 totalHit 53107608 overflow 1383 evictTime 0
2152870031000: system.mem_ctrls: mytrace writeOverhead 400852360000 swap 3 write 2778790 2552320
2152870031000: system.mem_ctrls: mytrace2 totalAccess 108936409 totalHit 53725958 overflow 1450 evictTime 0
2183482422000: system.mem_ctrls: mytrace writeOverhead 408966365000 swap 3 write 2829889 2472768
2183482422000: system.mem_ctrls: mytrace2 totalAccess 111019797 totalHit 54688772 overflow 1555 evictTime 0
2192918319000: system.mem_ctrls: mytrace writeOverhead 411523420000 swap 3 write 2845364 446720
2192918319000: system.mem_ctrls: mytrace2 totalAccess 111659288 totalHit 54972345 overflow 1594 evictTime 0
2205159119000: system.mem_ctrls: mytrace writeOverhead 414505395000 swap 3 write 2855164 448576
2205159119000: system.mem_ctrls: mytrace2 totalAccess 112384954 totalHit 55203718 overflow 1617 evictTime 0
2211583964000: system.mem_ctrls: mytrace writeOverhead 416256545000 swap 3 write 2870283 1241088
2211583964000: system.mem_ctrls: mytrace2 totalAccess 112868125 totalHit 55480959 overflow 1641 evictTime 0
2212841272000: system.mem_ctrls: mytrace writeOverhead 416696790000 swap 3 write 2875709 1349888
2212841272000: system.mem_ctrls: mytrace2 totalAccess 112988415 totalHit 55564041 overflow 1642 evictTime 0
2213598024000: system.mem_ctrls: mytrace writeOverhead 417012105000 swap 3 write 2878373 1988800
2213598024000: system.mem_ctrls: mytrace2 totalAccess 113056673 totalHit 55597068 overflow 1643 evictTime 0
2214728338000: system.mem_ctrls: mytrace writeOverhead 417356260000 swap 3 write 2883844 3241152
2214728338000: system.mem_ctrls: mytrace2 totalAccess 113168249 totalHit 55689247 overflow 1651 evictTime 0
2218969532000: system.mem_ctrls: mytrace writeOverhead 418427535000 swap 3 write 2888149 444800
2218969532000: system.mem_ctrls: mytrace2 totalAccess 113429751 totalHit 55781656 overflow 1670 evictTime 0
2227902104000: system.mem_ctrls: mytrace writeOverhead 420603845000 swap 3 write 2895245 442496
2227902104000: system.mem_ctrls: mytrace2 totalAccess 113957965 totalHit 55949214 overflow 1689 evictTime 0
2229029653000: system.mem_ctrls: mytrace writeOverhead 420874600000 swap 3 write 2896097 1273472
2229029653000: system.mem_ctrls: mytrace2 totalAccess 114024008 totalHit 55969866 overflow 1690 evictTime 0
2238015763000: system.mem_ctrls: mytrace writeOverhead 423056605000 swap 3 write 2903029 2481920
2238015763000: system.mem_ctrls: mytrace2 totalAccess 114552728 totalHit 56135856 overflow 1713 evictTime 0
2239260866000: system.mem_ctrls: mytrace writeOverhead 423421955000 swap 3 write 2907891 1904000
2239260866000: system.mem_ctrls: mytrace2 totalAccess 114666318 totalHit 56221093 overflow 1715 evictTime 0
2240991190000: system.mem_ctrls: mytrace writeOverhead 423953040000 swap 3 write 2915995 2705536
2240991190000: system.mem_ctrls: mytrace2 totalAccess 114834959 totalHit 56357250 overflow 1718 evictTime 0
2242321114000: system.mem_ctrls: mytrace writeOverhead 424451995000 swap 3 write 2921421 997888
2242321114000: system.mem_ctrls: mytrace2 totalAccess 114960311 totalHit 56435260 overflow 1719 evictTime 0
2243612291000: system.mem_ctrls: mytrace writeOverhead 424914100000 swap 3 write 2926851 3101440
2243612291000: system.mem_ctrls: mytrace2 totalAccess 115082544 totalHit 56516437 overflow 1719 evictTime 0
2248635805000: system.mem_ctrls: mytrace writeOverhead 426162125000 swap 3 write 2933425 1424256
2248635805000: system.mem_ctrls: mytrace2 totalAccess 115401803 totalHit 56649161 overflow 1729 evictTime 0
2253116243000: system.mem_ctrls: mytrace writeOverhead 427256825000 swap 3 write 2937085 457024
2253116243000: system.mem_ctrls: mytrace2 totalAccess 115666488 totalHit 56733178 overflow 1738 evictTime 0
2268221317000: system.mem_ctrls: mytrace writeOverhead 430950595000 swap 3 write 2951070 1428608
2268221317000: system.mem_ctrls: mytrace2 totalAccess 116579050 totalHit 57050920 overflow 1768 evictTime 0
2274943406000: system.mem_ctrls: mytrace writeOverhead 433086395000 swap 3 write 2975992 442944
2274943406000: system.mem_ctrls: mytrace2 totalAccess 117176232 totalHit 57452813 overflow 1776 evictTime 0
2289553410000: system.mem_ctrls: mytrace writeOverhead 436613920000 swap 3 write 2987171 448192
2289553410000: system.mem_ctrls: mytrace2 totalAccess 118034545 totalHit 57722489 overflow 1805 evictTime 0
2291790899000: system.mem_ctrls: mytrace writeOverhead 437152215000 swap 3 write 2988975 444992
2291790899000: system.mem_ctrls: mytrace2 totalAccess 118166132 totalHit 57764829 overflow 1808 evictTime 0
2297062774000: system.mem_ctrls: mytrace writeOverhead 438451195000 swap 3 write 2994344 1304768
2297062774000: system.mem_ctrls: mytrace2 totalAccess 118489714 totalHit 57883529 overflow 1820 evictTime 0
2301425087000: system.mem_ctrls: mytrace writeOverhead 439975085000 swap 3 write 3013299 703744
2301425087000: system.mem_ctrls: mytrace2 totalAccess 118908601 totalHit 58176199 overflow 1822 evictTime 0
2301998279000: system.mem_ctrls: mytrace writeOverhead 440147185000 swap 3 write 3016008 3089088
2301998279000: system.mem_ctrls: mytrace2 totalAccess 118964588 totalHit 58221864 overflow 1822 evictTime 0
2323550941000: system.mem_ctrls: mytrace writeOverhead 445436465000 swap 3 write 3036088 442496
2323550941000: system.mem_ctrls: mytrace2 totalAccess 120269865 totalHit 58674184 overflow 1868 evictTime 0
2325750290000: system.mem_ctrls: mytrace writeOverhead 445961275000 swap 3 write 3037849 853824
2325750290000: system.mem_ctrls: mytrace2 totalAccess 120400011 totalHit 58717790 overflow 1872 evictTime 0
2326309757000: system.mem_ctrls: mytrace writeOverhead 446147600000 swap 3 write 3040539 1675328
2326309757000: system.mem_ctrls: mytrace2 totalAccess 120456744 totalHit 58762565 overflow 1873 evictTime 0
2345303398000: system.mem_ctrls: mytrace writeOverhead 451301860000 swap 3 write 3075175 2332608
2345303398000: system.mem_ctrls: mytrace2 totalAccess 121781904 totalHit 59392471 overflow 1906 evictTime 0
2348603420000: system.mem_ctrls: mytrace writeOverhead 452118770000 swap 3 write 3078042 2112640
2348603420000: system.mem_ctrls: mytrace2 totalAccess 121979739 totalHit 59457097 overflow 1915 evictTime 0
2353011185000: system.mem_ctrls: mytrace writeOverhead 453197790000 swap 3 write 3081760 444928
2353011185000: system.mem_ctrls: mytrace2 totalAccess 122242911 totalHit 59542899 overflow 1921 evictTime 0
2356322610000: system.mem_ctrls: mytrace writeOverhead 454083490000 swap 3 write 3088970 676928
2356322610000: system.mem_ctrls: mytrace2 totalAccess 122485661 totalHit 59677524 overflow 1930 evictTime 0
2357487782000: system.mem_ctrls: mytrace writeOverhead 454454745000 swap 3 write 3094384 1272960
2357487782000: system.mem_ctrls: mytrace2 totalAccess 122599563 totalHit 59766917 overflow 1930 evictTime 0
2358050047000: system.mem_ctrls: mytrace writeOverhead 454623545000 swap 3 write 3097104 2857280
2358050047000: system.mem_ctrls: mytrace2 totalAccess 122655119 totalHit 59813109 overflow 1931 evictTime 0
2358768606000: system.mem_ctrls: mytrace writeOverhead 454910565000 swap 3 write 3099795 2542976
2358768606000: system.mem_ctrls: mytrace2 totalAccess 122721120 totalHit 59848606 overflow 1931 evictTime 0
2359523601000: system.mem_ctrls: mytrace writeOverhead 455229335000 swap 3 write 3102470 2581888
2359523601000: system.mem_ctrls: mytrace2 totalAccess 122789714 totalHit 59881393 overflow 1932 evictTime 0
2365896423000: system.mem_ctrls: mytrace writeOverhead 456934800000 swap 3 write 3114030 2280896
2365896423000: system.mem_ctrls: mytrace2 totalAccess 123230631 totalHit 60092333 overflow 1946 evictTime 0
2372543702000: system.mem_ctrls: mytrace writeOverhead 458559770000 swap 3 write 3119588 461888
2372543702000: system.mem_ctrls: mytrace2 totalAccess 123625682 totalHit 60220969 overflow 1963 evictTime 0
2383630083000: system.mem_ctrls: mytrace writeOverhead 461246380000 swap 3 write 3128506 447296
2383630083000: system.mem_ctrls: mytrace2 totalAccess 124282359 totalHit 60434062 overflow 1986 evictTime 0
2389677131000: system.mem_ctrls: mytrace writeOverhead 463277275000 swap 3 write 3151164 2973120
2389677131000: system.mem_ctrls: mytrace2 totalAccess 124827584 totalHit 60789859 overflow 1993 evictTime 0
2413111203000: system.mem_ctrls: mytrace writeOverhead 469062175000 swap 3 write 3173963 449664
2413111203000: system.mem_ctrls: mytrace2 totalAccess 126259584 totalHit 61297240 overflow 2050 evictTime 0
2416877465000: system.mem_ctrls: mytrace writeOverhead 470249760000 swap 3 write 3189263 739392
2416877465000: system.mem_ctrls: mytrace2 totalAccess 126608235 totalHit 61550858 overflow 2056 evictTime 0
2417631335000: system.mem_ctrls: mytrace writeOverhead 470569540000 swap 3 write 3191927 2861120
2417631335000: system.mem_ctrls: mytrace2 totalAccess 126676817 totalHit 61583559 overflow 2058 evictTime 0
2427160261000: system.mem_ctrls: mytrace writeOverhead 473119715000 swap 3 write 3207087 441152
2427160261000: system.mem_ctrls: mytrace2 totalAccess 127317587 totalHit 61863065 overflow 2077 evictTime 0
2432752040000: system.mem_ctrls: mytrace writeOverhead 474472115000 swap 3 write 3211405 1330880
2432752040000: system.mem_ctrls: mytrace2 totalAccess 127647162 totalHit 61967289 overflow 2087 evictTime 0
2439384589000: system.mem_ctrls: mytrace writeOverhead 476101175000 swap 3 write 3216944 449472
2439384589000: system.mem_ctrls: mytrace2 totalAccess 128042534 totalHit 62095458 overflow 2104 evictTime 0
2440304974000: system.mem_ctrls: mytrace writeOverhead 476399695000 swap 3 write 3218892 2446976
2440304974000: system.mem_ctrls: mytrace2 totalAccess 128110025 totalHit 62123452 overflow 2106 evictTime 0
2440937860000: system.mem_ctrls: mytrace writeOverhead 476783365000 swap 3 write 3222897 2138816
2440937860000: system.mem_ctrls: mytrace2 totalAccess 128183803 totalHit 62161700 overflow 2107 evictTime 0
2449221961000: system.mem_ctrls: mytrace writeOverhead 479563655000 swap 3 write 3249045 2027968
2449221961000: system.mem_ctrls: mytrace2 totalAccess 128877684 totalHit 62556533 overflow 2124 evictTime 0
2449858989000: system.mem_ctrls: mytrace writeOverhead 479788350000 swap 3 write 3251766 2999040
2449858989000: system.mem_ctrls: mytrace2 totalAccess 128938142 totalHit 62597822 overflow 2124 evictTime 0
2452374412000: system.mem_ctrls: mytrace writeOverhead 480450595000 swap 3 write 3257375 2472192
2452374412000: system.mem_ctrls: mytrace2 totalAccess 129121152 totalHit 62699462 overflow 2126 evictTime 0
2459346024000: system.mem_ctrls: mytrace writeOverhead 482553665000 swap 3 write 3269125 448704
2459346024000: system.mem_ctrls: mytrace2 totalAccess 129597550 totalHit 62876559 overflow 2138 evictTime 0
2462673379000: system.mem_ctrls: mytrace writeOverhead 483372935000 swap 3 write 3271972 447680
2462673379000: system.mem_ctrls: mytrace2 totalAccess 129795806 totalHit 62940719 overflow 2147 evictTime 0
2474896564000: system.mem_ctrls: mytrace writeOverhead 486385300000 swap 3 write 3282215 446976
2474896564000: system.mem_ctrls: mytrace2 totalAccess 130523853 totalHit 63172964 overflow 2171 evictTime 0
2475743812000: system.mem_ctrls: mytrace writeOverhead 486610905000 swap 3 write 3283868 1208256
2475743812000: system.mem_ctrls: mytrace2 totalAccess 130584907 totalHit 63205061 overflow 2172 evictTime 0
2476863904000: system.mem_ctrls: mytrace writeOverhead 486966180000 swap 3 write 3289312 2200640
2476863904000: system.mem_ctrls: mytrace2 totalAccess 130697382 totalHit 63296113 overflow 2173 evictTime 0
2478136034000: system.mem_ctrls: mytrace writeOverhead 487422050000 swap 3 write 3294721 914688
2478136034000: system.mem_ctrls: mytrace2 totalAccess 130818519 totalHit 63378214 overflow 2175 evictTime 0
2480278707000: system.mem_ctrls: mytrace writeOverhead 488278150000 swap 3 write 3302732 2841344
2480278707000: system.mem_ctrls: mytrace2 totalAccess 131015679 totalHit 63485079 overflow 2176 evictTime 0
2480836385000: system.mem_ctrls: mytrace writeOverhead 488441455000 swap 3 write 3305489 3023040
2480836385000: system.mem_ctrls: mytrace2 totalAccess 131070985 totalHit 63531812 overflow 2176 evictTime 0
2487837311000: system.mem_ctrls: mytrace writeOverhead 490204150000 swap 3 write 3314309 447424
2487837311000: system.mem_ctrls: mytrace2 totalAccess 131519725 totalHit 63712977 overflow 2186 evictTime 0
2501564792000: system.mem_ctrls: mytrace writeOverhead 493886420000 swap 3 write 3330420 2609024
2501564792000: system.mem_ctrls: mytrace2 totalAccess 132387985 totalHit 64012143 overflow 2212 evictTime 0
2504418909000: system.mem_ctrls: mytrace writeOverhead 494814920000 swap 3 write 3336250 780992
2504418909000: system.mem_ctrls: mytrace2 totalAccess 132594071 totalHit 64092404 overflow 2214 evictTime 0
2505049736000: system.mem_ctrls: mytrace writeOverhead 495194955000 swap 3 write 3340240 2588736
2505049736000: system.mem_ctrls: mytrace2 totalAccess 132667640 totalHit 64130743 overflow 2214 evictTime 0
2509153349000: system.mem_ctrls: mytrace writeOverhead 496647250000 swap 3 write 3351609 1126720
2509153349000: system.mem_ctrls: mytrace2 totalAccess 133000445 totalHit 64288555 overflow 2216 evictTime 0
2516567533000: system.mem_ctrls: mytrace writeOverhead 498848835000 swap 3 write 3373781 2530304
2516567533000: system.mem_ctrls: mytrace2 totalAccess 133605316 totalHit 64660520 overflow 2224 evictTime 0
2531895036000: system.mem_ctrls: mytrace writeOverhead 502692675000 swap 3 write 3387572 2168576
2531895036000: system.mem_ctrls: mytrace2 totalAccess 134531907 totalHit 64962019 overflow 2253 evictTime 0
2536499278000: system.mem_ctrls: mytrace writeOverhead 504268730000 swap 3 write 3398078 660288
2536499278000: system.mem_ctrls: mytrace2 totalAccess 134876538 totalHit 65100931 overflow 2265 evictTime 0
2538493763000: system.mem_ctrls: mytrace writeOverhead 504851795000 swap 3 write 3401361 1557376
2538493763000: system.mem_ctrls: mytrace2 totalAccess 135010823 totalHit 65152626 overflow 2268 evictTime 0
2539861846000: system.mem_ctrls: mytrace writeOverhead 505394100000 swap 3 write 3406722 2794752
2539861846000: system.mem_ctrls: mytrace2 totalAccess 135139576 totalHit 65226740 overflow 2269 evictTime 0
2540612570000: system.mem_ctrls: mytrace writeOverhead 505706610000 swap 3 write 3409390 701952
2540612570000: system.mem_ctrls: mytrace2 totalAccess 135207681 totalHit 65259937 overflow 2269 evictTime 0
2541857059000: system.mem_ctrls: mytrace writeOverhead 506144955000 swap 3 write 3414779 2146048
2541857059000: system.mem_ctrls: mytrace2 totalAccess 135327527 totalHit 65343179 overflow 2269 evictTime 0
2542456908000: system.mem_ctrls: mytrace writeOverhead 506346745000 swap 3 write 3417476 1141696
2542456908000: system.mem_ctrls: mytrace2 totalAccess 135385692 totalHit 65386577 overflow 2270 evictTime 0
2543057376000: system.mem_ctrls: mytrace writeOverhead 506551080000 swap 3 write 3420187 1420416
2543057376000: system.mem_ctrls: mytrace2 totalAccess 135444090 totalHit 65429852 overflow 2272 evictTime 0
2570466853000: system.mem_ctrls: mytrace writeOverhead 513956920000 swap 3 write 3461339 611200
2570466853000: system.mem_ctrls: mytrace2 totalAccess 137262500 totalHit 66177341 overflow 2326 evictTime 0
2571728932000: system.mem_ctrls: mytrace writeOverhead 514403585000 swap 3 write 3466743 1178112
2571728932000: system.mem_ctrls: mytrace2 totalAccess 137382768 totalHit 66260279 overflow 2328 evictTime 0
2573243499000: system.mem_ctrls: mytrace writeOverhead 515036945000 swap 3 write 3472028 2141760
2573243499000: system.mem_ctrls: mytrace2 totalAccess 137519735 totalHit 66325555 overflow 2328 evictTime 0
2574484181000: system.mem_ctrls: mytrace writeOverhead 515464285000 swap 3 write 3477429 2957120
2574484181000: system.mem_ctrls: mytrace2 totalAccess 137638664 totalHit 66409820 overflow 2329 evictTime 0
2575027667000: system.mem_ctrls: mytrace writeOverhead 515620865000 swap 3 write 3480231 3166336
2575027667000: system.mem_ctrls: mytrace2 totalAccess 137693404 totalHit 66457479 overflow 2330 evictTime 0
2582488358000: system.mem_ctrls: mytrace writeOverhead 517465940000 swap 3 write 3487954 444864
2582488358000: system.mem_ctrls: mytrace2 totalAccess 138150047 totalHit 66621673 overflow 2344 evictTime 0
2592655391000: system.mem_ctrls: mytrace writeOverhead 519910090000 swap 3 write 3495403 445184
2592655391000: system.mem_ctrls: mytrace2 totalAccess 138744723 totalHit 66805618 overflow 2363 evictTime 0
2632295915000: system.mem_ctrls: mytrace writeOverhead 530971055000 swap 3 write 3565457 1438912
2632295915000: system.mem_ctrls: mytrace2 totalAccess 141503915 totalHit 68043710 overflow 2419 evictTime 0
2632847702000: system.mem_ctrls: mytrace writeOverhead 531127255000 swap 3 write 3568201 3026816
2632847702000: system.mem_ctrls: mytrace2 totalAccess 141558630 totalHit 68090928 overflow 2419 evictTime 0
2633387296000: system.mem_ctrls: mytrace writeOverhead 531282900000 swap 3 write 3570974 3268288
2633387296000: system.mem_ctrls: mytrace2 totalAccess 141613334 totalHit 68138396 overflow 2419 evictTime 0
2657692986000: system.mem_ctrls: mytrace writeOverhead 537270520000 swap 3 write 3595570 855808
2657692986000: system.mem_ctrls: mytrace2 totalAccess 143105423 totalHit 68680109 overflow 2459 evictTime 0
2658296708000: system.mem_ctrls: mytrace writeOverhead 537474880000 swap 3 write 3598270 2620544
2658296708000: system.mem_ctrls: mytrace2 totalAccess 143163809 totalHit 68723306 overflow 2460 evictTime 0
2661216214000: system.mem_ctrls: mytrace writeOverhead 538670280000 swap 3 write 3608925 852160
2661216214000: system.mem_ctrls: mytrace2 totalAccess 143430943 totalHit 68861357 overflow 2466 evictTime 0
2661772952000: system.mem_ctrls: mytrace writeOverhead 538835060000 swap 3 write 3611695 1633920
2661772952000: system.mem_ctrls: mytrace2 totalAccess 143486227 totalHit 68908218 overflow 2467 evictTime 0
2667626394000: system.mem_ctrls: mytrace writeOverhead 540310775000 swap 3 write 3619878 448576
2667626394000: system.mem_ctrls: mytrace2 totalAccess 143866735 totalHit 69072477 overflow 2480 evictTime 0
2675435700000: system.mem_ctrls: mytrace writeOverhead 542212435000 swap 3 write 3626326 442048
2675435700000: system.mem_ctrls: mytrace2 totalAccess 144329072 totalHit 69220954 overflow 2491 evictTime 0
2677651363000: system.mem_ctrls: mytrace writeOverhead 542756695000 swap 3 write 3628225 954368
2677651363000: system.mem_ctrls: mytrace2 totalAccess 144460741 totalHit 69264212 overflow 2499 evictTime 0
2686086328000: system.mem_ctrls: mytrace writeOverhead 544871315000 swap 3 write 3636800 1412480
2686086328000: system.mem_ctrls: mytrace2 totalAccess 144981599 totalHit 69450721 overflow 2517 evictTime 0
2687861454000: system.mem_ctrls: mytrace writeOverhead 545464580000 swap 3 write 3644922 1366976
2687861454000: system.mem_ctrls: mytrace2 totalAccess 145155556 totalHit 69581710 overflow 2518 evictTime 0
2690132843000: system.mem_ctrls: mytrace writeOverhead 546420875000 swap 3 write 3652896 1480640
2690132843000: system.mem_ctrls: mytrace2 totalAccess 145361281 totalHit 69679738 overflow 2521 evictTime 0
2691295361000: system.mem_ctrls: mytrace writeOverhead 546786695000 swap 3 write 3658330 3051840
2691295361000: system.mem_ctrls: mytrace2 totalAccess 145474997 totalHit 69769469 overflow 2522 evictTime 0
2703764639000: system.mem_ctrls: mytrace writeOverhead 549972170000 swap 3 write 3672759 2181824
2703764639000: system.mem_ctrls: mytrace2 totalAccess 146258575 totalHit 70060130 overflow 2541 evictTime 0
2716763806000: system.mem_ctrls: mytrace writeOverhead 553300710000 swap 3 write 3689220 2352960
2716763806000: system.mem_ctrls: mytrace2 totalAccess 147094005 totalHit 70395363 overflow 2569 evictTime 0
2718909587000: system.mem_ctrls: mytrace writeOverhead 554170615000 swap 3 write 3697247 692416
2718909587000: system.mem_ctrls: mytrace2 totalAccess 147292051 totalHit 70501514 overflow 2573 evictTime 0
2721379907000: system.mem_ctrls: mytrace writeOverhead 555016655000 swap 3 write 3708123 1912000
2721379907000: system.mem_ctrls: mytrace2 totalAccess 147529709 totalHit 70670817 overflow 2573 evictTime 0
2725370180000: system.mem_ctrls: mytrace writeOverhead 556147835000 swap 3 write 3714019 2508160
2725370180000: system.mem_ctrls: mytrace2 totalAccess 147796128 totalHit 70771233 overflow 2580 evictTime 0
2726007767000: system.mem_ctrls: mytrace writeOverhead 556536265000 swap 3 write 3718029 1238080
2726007767000: system.mem_ctrls: mytrace2 totalAccess 147870318 totalHit 70809103 overflow 2580 evictTime 0
2734983745000: system.mem_ctrls: mytrace writeOverhead 559229475000 swap 3 write 3733048 2012928
2734983745000: system.mem_ctrls: mytrace2 totalAccess 148480850 totalHit 71037914 overflow 2601 evictTime 0
2742327939000: system.mem_ctrls: mytrace writeOverhead 561248060000 swap 3 write 3742400 2439488
2742327939000: system.mem_ctrls: mytrace2 totalAccess 148951623 totalHit 71201265 overflow 2610 evictTime 0
2745581073000: system.mem_ctrls: mytrace writeOverhead 562087910000 swap 3 write 3745633 1474496
2745581073000: system.mem_ctrls: mytrace2 totalAccess 149151214 totalHit 71267180 overflow 2618 evictTime 0
2747763498000: system.mem_ctrls: mytrace writeOverhead 562639415000 swap 3 write 3747657 447552
2747763498000: system.mem_ctrls: mytrace2 totalAccess 149283761 totalHit 71310641 overflow 2622 evictTime 0
2750247249000: system.mem_ctrls: mytrace writeOverhead 563464180000 swap 3 write 3758064 2553280
2750247249000: system.mem_ctrls: mytrace2 totalAccess 149518658 totalHit 71478956 overflow 2624 evictTime 0
2751766466000: system.mem_ctrls: mytrace writeOverhead 564109040000 swap 3 write 3763394 2426112
2751766466000: system.mem_ctrls: mytrace2 totalAccess 149656444 totalHit 71543790 overflow 2626 evictTime 0
2753099763000: system.mem_ctrls: mytrace writeOverhead 564610955000 swap 3 write 3768751 2896576
2753099763000: system.mem_ctrls: mytrace2 totalAccess 149781646 totalHit 71621401 overflow 2628 evictTime 0
2755310695000: system.mem_ctrls: mytrace writeOverhead 565215330000 swap 3 write 3775293 2494848
2755310695000: system.mem_ctrls: mytrace2 totalAccess 149958991 totalHit 71736294 overflow 2630 evictTime 0
2764068316000: system.mem_ctrls: mytrace writeOverhead 567410710000 swap 3 write 3783061 2377216
2764068316000: system.mem_ctrls: mytrace2 totalAccess 150487927 totalHit 71908666 overflow 2653 evictTime 0
2776191665000: system.mem_ctrls: mytrace writeOverhead 570475320000 swap 3 write 3793925 448576
2776191665000: system.mem_ctrls: mytrace2 totalAccess 151219159 totalHit 72143254 overflow 2688 evictTime 0
2782904269000: system.mem_ctrls: mytrace writeOverhead 572766185000 swap 3 write 3815029 1436352
2782904269000: system.mem_ctrls: mytrace2 totalAccess 151787464 totalHit 72463547 overflow 2704 evictTime 0
2788148913000: system.mem_ctrls: mytrace writeOverhead 574719015000 swap 3 write 3833841 2577920
2788148913000: system.mem_ctrls: mytrace2 totalAccess 152244867 totalHit 72716279 overflow 2721 evictTime 0
2789182075000: system.mem_ctrls: mytrace writeOverhead 575008110000 swap 3 write 3835221 1170048
2789182075000: system.mem_ctrls: mytrace2 totalAccess 152312039 totalHit 72740049 overflow 2723 evictTime 0
2792933686000: system.mem_ctrls: mytrace writeOverhead 576236705000 swap 3 write 3843060 2135488
2792933686000: system.mem_ctrls: mytrace2 totalAccess 152585432 totalHit 72849137 overflow 2730 evictTime 0
2804837483000: system.mem_ctrls: mytrace writeOverhead 579320835000 swap 3 write 3855119 448512
2804837483000: system.mem_ctrls: mytrace2 totalAccess 153318341 totalHit 73091445 overflow 2757 evictTime 0
2805969898000: system.mem_ctrls: mytrace writeOverhead 579588845000 swap 3 write 3855963 2440768
2805969898000: system.mem_ctrls: mytrace2 totalAccess 153384274 totalHit 73112144 overflow 2757 evictTime 0
2811612394000: system.mem_ctrls: mytrace writeOverhead 581033865000 swap 3 write 3864587 762112
2811612394000: system.mem_ctrls: mytrace2 totalAccess 153761210 totalHit 73283593 overflow 2766 evictTime 0
2813525202000: system.mem_ctrls: mytrace writeOverhead 581725845000 swap 3 write 3872674 1193792
2813525202000: system.mem_ctrls: mytrace2 totalAccess 153943684 totalHit 73405790 overflow 2767 evictTime 0
2820250774000: system.mem_ctrls: mytrace writeOverhead 583836515000 swap 3 write 3888823 2854528
2820250774000: system.mem_ctrls: mytrace2 totalAccess 154459040 totalHit 73659188 overflow 2781 evictTime 0
2821375218000: system.mem_ctrls: mytrace writeOverhead 584110660000 swap 3 write 3889644 446784
2821375218000: system.mem_ctrls: mytrace2 totalAccess 154525253 totalHit 73679398 overflow 2784 evictTime 0
2838033697000: system.mem_ctrls: mytrace writeOverhead 588215620000 swap 3 write 3902733 1342400
2838033697000: system.mem_ctrls: mytrace2 totalAccess 155517986 totalHit 73989380 overflow 2822 evictTime 0
2841209360000: system.mem_ctrls: mytrace writeOverhead 589094030000 swap 3 write 3910440 947136
2841209360000: system.mem_ctrls: mytrace2 totalAccess 155759853 totalHit 74128909 overflow 2827 evictTime 0
2841803089000: system.mem_ctrls: mytrace writeOverhead 589294610000 swap 3 write 3913130 2725120
2841803089000: system.mem_ctrls: mytrace2 totalAccess 155817944 totalHit 74172320 overflow 2827 evictTime 0
2843966739000: system.mem_ctrls: mytrace writeOverhead 590177730000 swap 3 write 3921171 911104
2843966739000: system.mem_ctrls: mytrace2 totalAccess 156017355 totalHit 74277220 overflow 2829 evictTime 0
2844721849000: system.mem_ctrls: mytrace writeOverhead 590491320000 swap 3 write 3923821 644480
2844721849000: system.mem_ctrls: mytrace2 totalAccess 156085475 totalHit 74310272 overflow 2830 evictTime 0
2845365291000: system.mem_ctrls: mytrace writeOverhead 590720920000 swap 3 write 3926540 2990784
2845365291000: system.mem_ctrls: mytrace2 totalAccess 156146361 totalHit 74351112 overflow 2830 evictTime 0
2861253598000: system.mem_ctrls: mytrace writeOverhead 594634885000 swap 3 write 3942631 2507072
2861253598000: system.mem_ctrls: mytrace2 totalAccess 157120225 totalHit 74704301 overflow 2864 evictTime 0
2878918264000: system.mem_ctrls: mytrace writeOverhead 599733155000 swap 3 write 3978161 1041728
2878918264000: system.mem_ctrls: mytrace2 totalAccess 158395598 totalHit 75311781 overflow 2896 evictTime 0
2896732236000: system.mem_ctrls: mytrace writeOverhead 604106410000 swap 3 write 3992467 461504
2896732236000: system.mem_ctrls: mytrace2 totalAccess 159453703 totalHit 75645553 overflow 2934 evictTime 0
2899562730000: system.mem_ctrls: mytrace writeOverhead 604846020000 swap 3 write 3996684 1535936
2899562730000: system.mem_ctrls: mytrace2 totalAccess 159642968 totalHit 75729778 overflow 2944 evictTime 0
2900737341000: system.mem_ctrls: mytrace writeOverhead 605235890000 swap 3 write 4002092 2613632
2900737341000: system.mem_ctrls: mytrace2 totalAccess 159758165 totalHit 75817823 overflow 2947 evictTime 0
2924397341000: system.mem_ctrls: mytrace writeOverhead 611693505000 swap 3 write 4035869 443072
2924397341000: system.mem_ctrls: mytrace2 totalAccess 161326010 totalHit 76437806 overflow 3000 evictTime 0
2929180961000: system.mem_ctrls: mytrace writeOverhead 613222780000 swap 3 write 4045006 2638592
2929180961000: system.mem_ctrls: mytrace2 totalAccess 161667739 totalHit 76568680 overflow 3009 evictTime 0
2932989765000: system.mem_ctrls: mytrace writeOverhead 614734325000 swap 3 write 4062230 2914688
2932989765000: system.mem_ctrls: mytrace2 totalAccess 162043017 totalHit 76811148 overflow 3018 evictTime 0
2939753099000: system.mem_ctrls: mytrace writeOverhead 616861460000 swap 3 write 4078709 442240
2939753099000: system.mem_ctrls: mytrace2 totalAccess 162559395 totalHit 77066067 overflow 3032 evictTime 0
2941484155000: system.mem_ctrls: mytrace writeOverhead 617521710000 swap 3 write 4083692 2038976
2941484155000: system.mem_ctrls: mytrace2 totalAccess 162699299 totalHit 77125927 overflow 3036 evictTime 0
2942122621000: system.mem_ctrls: mytrace writeOverhead 617904690000 swap 3 write 4087669 2081344
2942122621000: system.mem_ctrls: mytrace2 totalAccess 162773081 totalHit 77163947 overflow 3037 evictTime 0
2958540071000: system.mem_ctrls: mytrace writeOverhead 623119090000 swap 3 write 4118916 2059200
2958540071000: system.mem_ctrls: mytrace2 totalAccess 163935525 totalHit 77609726 overflow 3077 evictTime 0
2960358035000: system.mem_ctrls: mytrace writeOverhead 623761405000 swap 3 write 4123314 779904
2960358035000: system.mem_ctrls: mytrace2 totalAccess 164074385 totalHit 77665899 overflow 3081 evictTime 0
2960995348000: system.mem_ctrls: mytrace writeOverhead 624152720000 swap 3 write 4127311 2111168
2960995348000: system.mem_ctrls: mytrace2 totalAccess 164148662 totalHit 77703586 overflow 3083 evictTime 0
2967176838000: system.mem_ctrls: mytrace writeOverhead 626063995000 swap 3 write 4141052 2048448
2967176838000: system.mem_ctrls: mytrace2 totalAccess 164604666 totalHit 77916905 overflow 3107 evictTime 0
2969903545000: system.mem_ctrls: mytrace writeOverhead 627124450000 swap 3 write 4151773 1797824
2969903545000: system.mem_ctrls: mytrace2 totalAccess 164859471 totalHit 78067830 overflow 3115 evictTime 0
2970657568000: system.mem_ctrls: mytrace writeOverhead 627448425000 swap 3 write 4154448 884480
2970657568000: system.mem_ctrls: mytrace2 totalAccess 164928181 totalHit 78100502 overflow 3120 evictTime 0
2981643685000: system.mem_ctrls: mytrace writeOverhead 631274435000 swap 3 write 4184316 2099200
2981643685000: system.mem_ctrls: mytrace2 totalAccess 165797739 totalHit 78508998 overflow 3153 evictTime 0
2985483729000: system.mem_ctrls: mytrace writeOverhead 632518430000 swap 3 write 4192013 449088
2985483729000: system.mem_ctrls: mytrace2 totalAccess 166072074 totalHit 78615756 overflow 3167 evictTime 0
2991058158000: system.mem_ctrls: mytrace writeOverhead 634430480000 swap 3 write 4204617 2467968
2991058158000: system.mem_ctrls: mytrace2 totalAccess 166487179 totalHit 78781017 overflow 3187 evictTime 0
2998741842000: system.mem_ctrls: mytrace writeOverhead 636362820000 swap 3 write 4211624 448704
[...]
objective value            : 6930121656
153907625538000: system.mem_ctrls: mytrace writeOverhead 35991858065000 swap 23655127 write 196173203 18350720
153907625538000: system.mem_ctrls: mytrace2 totalAccess 10635999128 totalHit 5570002594 overflow 159451 evictTime 0
153935624990000: system.mem_ctrls: mytrace writeOverhead 35994716340000 swap 23655128 write 196174144 2211584
153935624990000: system.mem_ctrls: mytrace2 totalAccess 10637643993 totalHit 5571085249 overflow 159451 evictTime 0
154629247102000: system.mem_ctrls: mytrace writeOverhead 36045323485000 swap 23655164 write 196186358 2046976
154629247102000: system.mem_ctrls: mytrace2 totalAccess 10678212740 totalHit 5601654651 overflow 159456 evictTime 0
154664067886000: system.mem_ctrls: mytrace writeOverhead 36048906590000 swap 23655165 write 196218747 5117696
154664067886000: system.mem_ctrls: mytrace2 totalAccess 10680483265 totalHit 5603483129 overflow 159462 evictTime 0
erased arcs                : 5327571
154965052708000: system.mem_ctrls: mytrace writeOverhead 36077234140000 swap 23655166 write 196534367 2153344
154965052708000: system.mem_ctrls: mytrace2 totalAccess 10703306891 totalHit 5623498867 overflow 159502 evictTime 0
159134055310000: system.mem_ctrls: mytrace writeOverhead 36205707620000 swap 23655166 write 196556376 19490560
159134055310000: system.mem_ctrls: mytrace2 totalAccess 10984419313 totalHit 5879119971 overflow 159508 evictTime 0
159292451040000: system.mem_ctrls: mytrace writeOverhead 36210661515000 swap 23655166 write 196559192 19591552
159292451040000: system.mem_ctrls: mytrace2 totalAccess 10995073364 totalHit 5888808133 overflow 159509 evictTime 0
173724800992000: system.mem_ctrls: mytrace writeOverhead 36645765615000 swap 23655166 write 196594095 18976832
173724800992000: system.mem_ctrls: mytrace2 totalAccess 11960721381 totalHit 6767755791 overflow 159519 evictTime 0
new implicit arcs          : 27187
active arcs                : 241538
173740751459000: system.mem_ctrls: mytrace writeOverhead 36650555440000 swap 23655166 write 196630030 2822016
173740751459000: system.mem_ctrls: mytrace2 totalAccess 11961898495 totalHit 6768304626 overflow 159550 evictTime 0
173742250766000: system.mem_ctrls: mytrace writeOverhead 36651172245000 swap 23655166 write 196635378 2253248
173742250766000: system.mem_ctrls: mytrace2 totalAccess 11962033888 totalHit 6768371982 overflow 159553 evictTime 0
173745213572000: system.mem_ctrls: mytrace writeOverhead 36652381925000 swap 23655166 write 196646063 1505472
173745213572000: system.mem_ctrls: mytrace2 totalAccess 11962302989 totalHit 6768508326 overflow 159557 evictTime 0
173746714085000: system.mem_ctrls: mytrace writeOverhead 36652996195000 swap 23655166 write 196651408 3303104
173746714085000: system.mem_ctrls: mytrace2 totalAccess 11962438617 totalHit 6768575435 overflow 159557 evictTime 0
173752162436000: system.mem_ctrls: mytrace writeOverhead 36654740380000 swap 23655166 write 196661710 2522496
173752162436000: system.mem_ctrls: mytrace2 totalAccess 11962841079 totalHit 6768735313 overflow 159565 evictTime 0
173779712663000: system.mem_ctrls: mytrace writeOverhead 36661527515000 swap 23655166 write 196675210 2093056
173779712663000: system.mem_ctrls: mytrace2 totalAccess 11964542789 totalHit 6769221398 overflow 159585 evictTime 0
173785200496000: system.mem_ctrls: mytrace writeOverhead 36662795660000 swap 23655166 write 196676319 445184
173785200496000: system.mem_ctrls: mytrace2 totalAccess 11964867762 totalHit 6769305287 overflow 159590 evictTime 0
174463341385000: system.mem_ctrls: mytrace writeOverhead 36813427190000 swap 23655166 write 196689785 1142848
174463341385000: system.mem_ctrls: mytrace2 totalAccess 12004272772 totalHit 6778727943 overflow 159617 evictTime 0
174493808004000: system.mem_ctrls: mytrace writeOverhead 36820528270000 swap 23655166 write 196696183 1249216
174493808004000: system.mem_ctrls: mytrace2 totalAccess 12006094986 totalHit 6779196890 overflow 159626 evictTime 0
175268319452000: system.mem_ctrls: mytrace writeOverhead 36993507955000 swap 23655166 write 196729828 2535680
175268319452000: system.mem_ctrls: mytrace2 totalAccess 12051272599 totalHit 6790128298 overflow 159655 evictTime 0
175269067181000: system.mem_ctrls: mytrace writeOverhead 36993812980000 swap 23655166 write 196732471 1343872
175269067181000: system.mem_ctrls: mytrace2 totalAccess 12051340083 totalHit 6790161938 overflow 159656 evictTime 0
175275024270000: system.mem_ctrls: mytrace writeOverhead 36996254385000 swap 23655166 write 196753861 3323328
175275024270000: system.mem_ctrls: mytrace2 totalAccess 12051880164 totalHit 6790432918 overflow 159667 evictTime 0
simplex iterations         : 333437
175308110960000: system.mem_ctrls: mytrace writeOverhead 36998496945000 swap 23655166 write 196758058 5248320
175308110960000: system.mem_ctrls: mytrace2 totalAccess 12053663144 totalHit 6791803496 overflow 159667 evictTime 0
175326111808000: system.mem_ctrls: mytrace writeOverhead 37009303125000 swap 23655166 write 197000322 9224640
175326111808000: system.mem_ctrls: mytrace2 totalAccess 12056681321 totalHit 6794643074 overflow 159673 evictTime 0
175327453579000: system.mem_ctrls: mytrace writeOverhead 37009943250000 swap 23655166 write 197006033 9919104
175327453579000: system.mem_ctrls: mytrace2 totalAccess 12056817571 totalHit 6794712499 overflow 159673 evictTime 0
objective value            : 6930121650
175349843187000: system.mem_ctrls: mytrace writeOverhead 37012487035000 swap 23655166 write 197027741 3247424
175349843187000: system.mem_ctrls: mytrace2 totalAccess 12058453029 totalHit 6796050641 overflow 159673 evictTime 0
175351046173000: system.mem_ctrls: mytrace writeOverhead 37013213525000 swap 23655166 write 197037491 2253696
175351046173000: system.mem_ctrls: mytrace2 totalAccess 12058597426 totalHit 6796144224 overflow 159678 evictTime 0
175354474629000: system.mem_ctrls: mytrace writeOverhead 37013893695000 swap 23655166 write 197046791 859008
175354474629000: system.mem_ctrls: mytrace2 totalAccess 12058860105 totalHit 6796355855 overflow 159683 evictTime 0
175356722692000: system.mem_ctrls: mytrace writeOverhead 37015348825000 swap 23655166 write 197076790 2062592
175356722692000: system.mem_ctrls: mytrace2 totalAccess 12059238495 totalHit 6796697379 overflow 159693 evictTime 0
erased arcs                : 27182
178948042656000: system.mem_ctrls: mytrace writeOverhead 37145317400000 swap 23655166 write 197417613 20340544
178948042656000: system.mem_ctrls: mytrace2 totalAccess 12304136695 totalHit 7018680257 overflow 159759 evictTime 0
179409289604000: system.mem_ctrls: mytrace writeOverhead 37160548065000 swap 23655166 write 197446129 18795968
179409289604000: system.mem_ctrls: mytrace2 totalAccess 12335213067 totalHit 7046951585 overflow 159762 evictTime 0
179442971236000: system.mem_ctrls: mytrace writeOverhead 37161953720000 swap 23655166 write 197454644 22198592
179442971236000: system.mem_ctrls: mytrace2 totalAccess 12337511533 totalHit 7049041181 overflow 159764 evictTime 0
179752072466000: system.mem_ctrls: mytrace writeOverhead 37172735585000 swap 23655166 write 197486312 24079040
179752072466000: system.mem_ctrls: mytrace2 totalAccess 12358421978 totalHit 7068063986 overflow 159773 evictTime 0
179941593349000: system.mem_ctrls: mytrace writeOverhead 37179573995000 swap 23655167 write 197511022 20474304
179941593349000: system.mem_ctrls: mytrace2 totalAccess 12371260130 totalHit 7079743439 overflow 159778 evictTime 0
179970274181000: system.mem_ctrls: mytrace writeOverhead 37180581305000 swap 23655167 write 197514234 25772608
179970274181000: system.mem_ctrls: mytrace2 totalAccess 12373200241 totalHit 7081509007 overflow 159778 evictTime 0
180062593817000: system.mem_ctrls: mytrace writeOverhead 37183690160000 swap 23655167 write 197521622 26231168
180062593817000: system.mem_ctrls: mytrace2 totalAccess 12379429813 totalHit 7087178521 overflow 159778 evictTime 0
180127460320000: system.mem_ctrls: mytrace writeOverhead 37185879100000 swap 23655167 write 197526740 26546688
180127460320000: system.mem_ctrls: mytrace2 totalAccess 12383807458 totalHit 7091161786 overflow 159780 evictTime 0
180158663472000: system.mem_ctrls: mytrace writeOverhead 37187138630000 swap 23655167 write 197533661 26949952
180158663472000: system.mem_ctrls: mytrace2 totalAccess 12385931594 totalHit 7093093006 overflow 159783 evictTime 0
180244783304000: system.mem_ctrls: mytrace writeOverhead 37190297620000 swap 23655167 write 197545801 27639104
180244783304000: system.mem_ctrls: mytrace2 totalAccess 12391764373 totalHit 7098397272 overflow 159787 evictTime 0
180828890980000: system.mem_ctrls: mytrace writeOverhead 37209023305000 swap 23655167 write 197570186 28901184
180828890980000: system.mem_ctrls: mytrace2 totalAccess 12430990503 totalHit 7134085852 overflow 159793 evictTime 0
180987049042000: system.mem_ctrls: mytrace writeOverhead 37213874670000 swap 23655167 write 197572006 2730176
180987049042000: system.mem_ctrls: mytrace2 totalAccess 12441595031 totalHit 7143735874 overflow 159794 evictTime 0
181119633235000: system.mem_ctrls: mytrace writeOverhead 37218170765000 swap 23655167 write 197578565 29380736
181119633235000: system.mem_ctrls: mytrace2 totalAccess 12450502734 totalHit 7151840626 overflow 159798 evictTime 0
181214707418000: system.mem_ctrls: mytrace writeOverhead 37221488845000 swap 23655167 write 197588938 30021056
181214707418000: system.mem_ctrls: mytrace2 totalAccess 12456912425 totalHit 7157673903 overflow 159800 evictTime 0
181215970691000: system.mem_ctrls: mytrace writeOverhead 37221660275000 swap 23655167 write 197592029 30225152
181215970691000: system.mem_ctrls: mytrace2 totalAccess 12457008938 totalHit 7157762100 overflow 159801 evictTime 0
181366061031000: system.mem_ctrls: mytrace writeOverhead 37226484190000 swap 23655167 write 197598607 30606400
181366061031000: system.mem_ctrls: mytrace2 totalAccess 12467089546 totalHit 7166934089 overflow 159803 evictTime 0
181379202072000: system.mem_ctrls: mytrace writeOverhead 37227025695000 swap 23655167 write 197601749 30796864
181379202072000: system.mem_ctrls: mytrace2 totalAccess 12467982848 totalHit 7167745890 overflow 159804 evictTime 0
181379835398000: system.mem_ctrls: mytrace writeOverhead 37227116675000 swap 23655167 write 197603365 30879488
181379835398000: system.mem_ctrls: mytrace2 totalAccess 12468031605 totalHit 7167790053 overflow 159804 evictTime 0
181645549891000: system.mem_ctrls: mytrace writeOverhead 37236303485000 swap 23655167 write 197628969 32400896
181645549891000: system.mem_ctrls: mytrace2 totalAccess 12485942978 totalHit 7184083442 overflow 159818 evictTime 0
181646176550000: system.mem_ctrls: mytrace writeOverhead 37236397220000 swap 23655167 write 197630651 32488576
181646176550000: system.mem_ctrls: mytrace2 totalAccess 12485992015 totalHit 7184127851 overflow 159818 evictTime 0
182025424498000: system.mem_ctrls: mytrace writeOverhead 37249242085000 swap 23655168 write 197662365 34418944
182025424498000: system.mem_ctrls: mytrace2 totalAccess 12511548640 totalHit 7207384877 overflow 159834 evictTime 0
182033553450000: system.mem_ctrls: mytrace writeOverhead 37249575525000 swap 23655168 write 197664203 22712896
182033553450000: system.mem_ctrls: mytrace2 totalAccess 12512101325 totalHit 7207886874 overflow 159836 evictTime 0
182259084854000: system.mem_ctrls: mytrace writeOverhead 37257039380000 swap 23655168 write 197678750 35375168
182259084854000: system.mem_ctrls: mytrace2 totalAccess 12527284087 totalHit 7221700396 overflow 159838 evictTime 0
194456459996000: system.mem_ctrls: mytrace writeOverhead 37623861055000 swap 23655168 write 197702240 18942016
194456459996000: system.mem_ctrls: mytrace2 totalAccess 13343074392 totalHit 7964337798 overflow 159842 evictTime 0
new implicit arcs          : 272998
active arcs                : 487354
194508805891000: system.mem_ctrls: mytrace writeOverhead 37654674020000 swap 23655168 write 198245461 442368
194508805891000: system.mem_ctrls: mytrace2 totalAccess 13350492270 totalHit 7970383062 overflow 160100 evictTime 0
194519334713000: system.mem_ctrls: mytrace writeOverhead 37657587090000 swap 23655168 write 198258917 2544128
194519334713000: system.mem_ctrls: mytrace2 totalAccess 13351166987 totalHit 7970614758 overflow 160118 evictTime 0
194520833014000: system.mem_ctrls: mytrace writeOverhead 37658202730000 swap 23655168 write 198264257 2218688
194520833014000: system.mem_ctrls: mytrace2 totalAccess 13351302449 totalHit 7970681995 overflow 160120 evictTime 0
194522323513000: system.mem_ctrls: mytrace writeOverhead 37658814105000 swap 23655168 write 198269592 1597440
194522323513000: system.mem_ctrls: mytrace2 totalAccess 13351437588 totalHit 7970749523 overflow 160121 evictTime 0
194523794761000: system.mem_ctrls: mytrace writeOverhead 37659410615000 swap 23655168 write 198274948 3084288
194523794761000: system.mem_ctrls: mytrace2 totalAccess 13351571353 totalHit 7970818589 overflow 160125 evictTime 0
194536532713000: system.mem_ctrls: mytrace writeOverhead 37663293160000 swap 23655168 write 198296544 2487808
194536532713000: system.mem_ctrls: mytrace2 totalAccess 13352454514 totalHit 7971147122 overflow 160144 evictTime 0
194548065303000: system.mem_ctrls: mytrace writeOverhead 37666429040000 swap 23655168 write 198308806 903424
194548065303000: system.mem_ctrls: mytrace2 totalAccess 13353192304 totalHit 7971386254 overflow 160161 evictTime 0
194551036998000: system.mem_ctrls: mytrace writeOverhead 37667638860000 swap 23655168 write 198319479 2903872
194551036998000: system.mem_ctrls: mytrace2 totalAccess 13353461176 totalHit 7971522722 overflow 160167 evictTime 0
194561936448000: system.mem_ctrls: mytrace writeOverhead 37670826565000 swap 23655168 write 198334899 446784
194561936448000: system.mem_ctrls: mytrace2 totalAccess 13354201316 totalHit 7971785170 overflow 160183 evictTime 0
194576694716000: system.mem_ctrls: mytrace writeOverhead 37674771260000 swap 23655168 write 198348070 2563072
194576694716000: system.mem_ctrls: mytrace2 totalAccess 13355139125 totalHit 7972071842 overflow 160199 evictTime 0
194578203419000: system.mem_ctrls: mytrace writeOverhead 37675392105000 swap 23655168 write 198353405 2374720
194578203419000: system.mem_ctrls: mytrace2 totalAccess 13355274930 totalHit 7972138697 overflow 160203 evictTime 0
194580424165000: system.mem_ctrls: mytrace writeOverhead 37676296900000 swap 23655168 write 198361425 3108928
194580424165000: system.mem_ctrls: mytrace2 totalAccess 13355476195 totalHit 7972241569 overflow 160210 evictTime 0
194766383113000: system.mem_ctrls: mytrace writeOverhead 37721266280000 swap 23655168 write 198408272 2645312
194766383113000: system.mem_ctrls: mytrace2 totalAccess 13366753910 totalHit 7975017339 overflow 160274 evictTime 0
194767142412000: system.mem_ctrls: mytrace writeOverhead 37721579380000 swap 23655168 write 198410944 1957376
194767142412000: system.mem_ctrls: mytrace2 totalAccess 13366822282 totalHit 7975050334 overflow 160274 evictTime 0
194778486281000: system.mem_ctrls: mytrace writeOverhead 37724637935000 swap 23655168 write 198421569 1225472
194778486281000: system.mem_ctrls: mytrace2 totalAccess 13367552076 totalHit 7975284694 overflow 160309 evictTime 0
194877044030000: system.mem_ctrls: mytrace writeOverhead 37747740635000 swap 23655168 write 198430622 2715968
194877044030000: system.mem_ctrls: mytrace2 totalAccess 13373410603 totalHit 7976618299 overflow 160325 evictTime 0
194878259117000: system.mem_ctrls: mytrace writeOverhead 37748466245000 swap 23655168 write 198438591 2828160
194878259117000: system.mem_ctrls: mytrace2 totalAccess 13373554334 totalHit 7976698294 overflow 160330 evictTime 0
196098050623000: system.mem_ctrls: mytrace writeOverhead 38029886855000 swap 23655168 write 198453275 1108608
196098050623000: system.mem_ctrls: mytrace2 totalAccess 13445358581 totalHit 7992371417 overflow 160343 evictTime 0
196101008935000: system.mem_ctrls: mytrace writeOverhead 38031090645000 swap 23655168 write 198464011 3052288
196101008935000: system.mem_ctrls: mytrace2 totalAccess 13445627392 totalHit 7992508474 overflow 160346 evictTime 0
196101761012000: system.mem_ctrls: mytrace writeOverhead 38031397350000 swap 23655168 write 198466680 2081984
196101761012000: system.mem_ctrls: mytrace2 totalAccess 13445695255 totalHit 7992541954 overflow 160346 evictTime 0
simplex iterations         : 334353
196207843604000: system.mem_ctrls: mytrace writeOverhead 38056132325000 swap 23655168 write 198955489 5072960
196207843604000: system.mem_ctrls: mytrace2 totalAccess 13455603797 totalHit 8001503184 overflow 160440 evictTime 0
196212367435000: system.mem_ctrls: mytrace writeOverhead 38058212570000 swap 23655168 write 198975616 18518144
196212367435000: system.mem_ctrls: mytrace2 totalAccess 13456067715 totalHit 8001760257 overflow 160443 evictTime 0
objective value            : 6930121646
196247695312000: system.mem_ctrls: mytrace writeOverhead 38060164805000 swap 23655168 write 198987340 18320576
196247695312000: system.mem_ctrls: mytrace2 totalAccess 13458493605 totalHit 8003908101 overflow 160445 evictTime 0
196248305713000: system.mem_ctrls: mytrace writeOverhead 38060523065000 swap 23655168 write 198992032 18465920
196248305713000: system.mem_ctrls: mytrace2 totalAccess 13458565560 totalHit 8003953667 overflow 160445 evictTime 0
196249529552000: system.mem_ctrls: mytrace writeOverhead 38061107665000 swap 23655168 write 199000091 18715584
196249529552000: system.mem_ctrls: mytrace2 totalAccess 13458698013 totalHit 8004045668 overflow 160448 evictTime 0
196290720284000: system.mem_ctrls: mytrace writeOverhead 38064218705000 swap 23655168 write 199034968 682688
196290720284000: system.mem_ctrls: mytrace2 totalAccess 13461439064 totalHit 8006463500 overflow 160465 evictTime 0
erased arcs                : 272992
new implicit arcs          : 308
active arcs                : 214670
215540124276000: system.mem_ctrls: mytrace writeOverhead 38701052460000 swap 23655168 write 199361625 461696
215540124276000: system.mem_ctrls: mytrace2 totalAccess 14752296577 totalHit 9172933841 overflow 160532 evictTime 0
215706303573000: system.mem_ctrls: mytrace writeOverhead 38738521810000 swap 23655168 write 199377551 2919168
215706303573000: system.mem_ctrls: mytrace2 totalAccess 14762065598 totalHit 9175372146 overflow 160539 evictTime 0
simplex iterations         : 334402
215854565991000: system.mem_ctrls: mytrace writeOverhead 38768519735000 swap 23655168 write 199417242 5207744
215854565991000: system.mem_ctrls: mytrace2 totalAccess 14770864453 totalHit 9178570695 overflow 160551 evictTime 0
215870169960000: system.mem_ctrls: mytrace writeOverhead 38777938120000 swap 23655168 write 199631124 9688896
215870169960000: system.mem_ctrls: mytrace2 totalAccess 14773508951 totalHit 9181077011 overflow 160554 evictTime 0
215870843037000: system.mem_ctrls: mytrace writeOverhead 38778258985000 swap 23655168 write 199633969 8778304
215870843037000: system.mem_ctrls: mytrace2 totalAccess 14773577127 totalHit 9181111583 overflow 160554 evictTime 0
215871510506000: system.mem_ctrls: mytrace writeOverhead 38778579095000 swap 23655168 write 199636837 18119360
215871510506000: system.mem_ctrls: mytrace2 totalAccess 14773645259 totalHit 9181146382 overflow 160554 evictTime 0
215874036214000: system.mem_ctrls: mytrace writeOverhead 38779695410000 swap 23655168 write 199648252 18451712
215874036214000: system.mem_ctrls: mytrace2 totalAccess 14773904571 totalHit 9181298371 overflow 160555 evictTime 0
objective value            : 6930121644
checksum                   : 19565010
done
215894271903000: system.mem_ctrls: mytrace writeOverhead 38782389530000 swap 23655168 write 199685552 3313664
215894271903000: system.mem_ctrls: mytrace2 totalAccess 14775520572 totalHit 9182700646 overflow 160573 evictTime 0
Exiting @ tick 215952884301000 because exiting with last active thread context
