gem5 Simulator System.  http://gem5.org
gem5 is copyrighted software; use the --copyright option for details.

gem5 compiled Mar 29 2021 23:59:50
gem5 started Mar 30 2021 21:23:33
gem5 executing on tiger, pid 32222
command line: build/X86/gem5.opt --debug-flags=MYTRACE -r --stdout-file=simout-GemsFDTD configs/example/se.py -n 1 --caches --cpu-type=TimingSimpleCPU --mem-size=2GB --mem-channels=1 -c ./459.GemsFDTD/exe/GemsFDTD_base.amd64-m64-gcc42-nn

Global frequency set at 1000000000000 ticks per second
warn: DRAM device capacity (8192 Mbytes) does not match the address range assigned (2048 Mbytes)
0: system.remote_gdb: listening for remote gdb on port 7000
**** REAL SIMULATION ****
info: Entering event queue @ 0.  Starting simulation...
info: Increasing stack size by one page.
warn: ignoring syscall access(...)
warn: ignoring syscall rt_sigaction(...)
      (further warnings will be suppressed)
 Welcome to GemsFDTD

 *******PROBLEMSIZE*************************
 problemsize:         210         210         210
 *******CELLSIZE****************************
info: Increasing stack size by one page.
 dx:   1.0000000000000000E-002
 dy:   1.0000000000000000E-002
 dz:   1.0000000000000000E-002
 *******NSTEP*******************************
 nstep:           2
warn: MOVNTDQ: Ignoring non-temporal hint, modeling as cacheable!
 *******PLANEWAVE*************************
 wavedir:   0.0000000000000000        0.0000000000000000        1.0000000000000000     
 Epol:   1.0000000000000000        0.0000000000000000       -0.0000000000000000     
 PulseType:           6
 param:   1.2000000000000000E-009   2.0000000000000001E-010  -1111.0999999999999     
 X0:   0.0000000000000000        0.0000000000000000        0.0000000000000000     
 Disttobound:          10
9271134000: system.mem_ctrls: mytrace writeOverhead 1978315000 swap 1 write 34290 446848
9271134000: system.mem_ctrls: mytrace2 totalAccess 434684 totalHit 358478 overflow 111 evictTime 0
13576422000: system.mem_ctrls: mytrace writeOverhead 2833825000 swap 1 write 49279 844224
13576422000: system.mem_ctrls: mytrace2 totalAccess 620329 totalHit 514242 overflow 173 evictTime 0
15008138000: system.mem_ctrls: mytrace writeOverhead 3117675000 swap 1 write 54276 1013696
15008138000: system.mem_ctrls: mytrace2 totalAccess 682070 totalHit 566123 overflow 193 evictTime 0
16437672000: system.mem_ctrls: mytrace writeOverhead 3402540000 swap 1 write 59272 1024320
16437672000: system.mem_ctrls: mytrace2 totalAccess 743931 totalHit 618109 overflow 214 evictTime 0
19310244000: system.mem_ctrls: mytrace writeOverhead 3970645000 swap 1 write 69268 483456
19310244000: system.mem_ctrls: mytrace2 totalAccess 867716 totalHit 721979 overflow 253 evictTime 0
20745652000: system.mem_ctrls: mytrace writeOverhead 4254675000 swap 1 write 74263 446848
20745652000: system.mem_ctrls: mytrace2 totalAccess 929349 totalHit 773716 overflow 273 evictTime 0
309412959000: system.mem_ctrls: mytrace writeOverhead 61333160000 swap 1 write 1079144 2123328
309412959000: system.mem_ctrls: mytrace2 totalAccess 13328418 totalHit 11192703 overflow 4316 evictTime 0
310845927000: system.mem_ctrls: mytrace writeOverhead 61615185000 swap 1 write 1084141 1225088
310845927000: system.mem_ctrls: mytrace2 totalAccess 13389998 totalHit 11244391 overflow 4334 evictTime 0
378480017000: system.mem_ctrls: mytrace writeOverhead 74959605000 swap 1 write 1319121 1024448
378480017000: system.mem_ctrls: mytrace2 totalAccess 16288385 totalHit 13680327 overflow 5282 evictTime 0
379922689000: system.mem_ctrls: mytrace writeOverhead 75246585000 swap 1 write 1324117 391040
379922689000: system.mem_ctrls: mytrace2 totalAccess 16350153 totalHit 13732198 overflow 5305 evictTime 0
835509260000: system.mem_ctrls: mytrace writeOverhead 165249215000 swap 1 write 2908937 410112
835509260000: system.mem_ctrls: mytrace2 totalAccess 35899251 totalHit 30160564 overflow 11681 evictTime 0
839833750000: system.mem_ctrls: mytrace writeOverhead 166102965000 swap 1 write 2923931 397696
839833750000: system.mem_ctrls: mytrace2 totalAccess 36084352 totalHit 30316089 overflow 11744 evictTime 0
881413706000: system.mem_ctrls: mytrace writeOverhead 174334885000 swap 1 write 3068918 447040
881413706000: system.mem_ctrls: mytrace2 totalAccess 37872803 totalHit 31819226 overflow 12326 evictTime 0
882854621000: system.mem_ctrls: mytrace writeOverhead 174618850000 swap 1 write 3073917 996032
882854621000: system.mem_ctrls: mytrace2 totalAccess 37934555 totalHit 31871106 overflow 12346 evictTime 0
 ***************PEC*************************
 Number of components:        28686
1259560797000: system.mem_ctrls: mytrace writeOverhead 248944130000 swap 1 write 4383523 2500160
1259560797000: system.mem_ctrls: mytrace2 totalAccess 54091420 totalHit 45454676 overflow 17607 evictTime 0
1264768013000: system.mem_ctrls: mytrace writeOverhead 250096690000 swap 1 write 4403522 1025088
1264768013000: system.mem_ctrls: mytrace2 totalAccess 54335245 totalHit 45658055 overflow 17697 evictTime 0
1268742133000: system.mem_ctrls: mytrace writeOverhead 250952920000 swap 1 write 4418521 451008
1268742133000: system.mem_ctrls: mytrace2 totalAccess 54517713 totalHit 45811105 overflow 17762 evictTime 0
1270070573000: system.mem_ctrls: mytrace writeOverhead 251236370000 swap 1 write 4423520 410112
1270070573000: system.mem_ctrls: mytrace2 totalAccess 54578337 totalHit 45861976 overflow 17782 evictTime 0
1271390910000: system.mem_ctrls: mytrace writeOverhead 251525930000 swap 1 write 4428519 479808
1271390910000: system.mem_ctrls: mytrace2 totalAccess 54638917 totalHit 45912892 overflow 17809 evictTime 0
1274041563000: system.mem_ctrls: mytrace writeOverhead 252096260000 swap 1 write 4438518 1013888
1274041563000: system.mem_ctrls: mytrace2 totalAccess 54760224 totalHit 46014873 overflow 17854 evictTime 0
1278020913000: system.mem_ctrls: mytrace writeOverhead 252954095000 swap 1 write 4453515 1022016
1278020913000: system.mem_ctrls: mytrace2 totalAccess 54942331 totalHit 46167758 overflow 17922 evictTime 0
1280656561000: system.mem_ctrls: mytrace writeOverhead 253523630000 swap 1 write 4463510 451392
1280656561000: system.mem_ctrls: mytrace2 totalAccess 55063896 totalHit 46269833 overflow 17965 evictTime 0
1281984797000: system.mem_ctrls: mytrace writeOverhead 253807075000 swap 1 write 4468508 844224
1281984797000: system.mem_ctrls: mytrace2 totalAccess 55124647 totalHit 46320831 overflow 17985 evictTime 0
1283316161000: system.mem_ctrls: mytrace writeOverhead 254098530000 swap 1 write 4473502 412928
1283316161000: system.mem_ctrls: mytrace2 totalAccess 55185444 totalHit 46371769 overflow 18013 evictTime 0
1285963045000: system.mem_ctrls: mytrace writeOverhead 254669140000 swap 1 write 4483501 502592
1285963045000: system.mem_ctrls: mytrace2 totalAccess 55306838 totalHit 46473839 overflow 18058 evictTime 0
1292579046000: system.mem_ctrls: mytrace writeOverhead 256093045000 swap 1 write 4508498 397888
1292579046000: system.mem_ctrls: mytrace2 totalAccess 55610060 totalHit 46728993 overflow 18170 evictTime 0
1293905005000: system.mem_ctrls: mytrace writeOverhead 256374935000 swap 1 write 4513497 404352
1293905005000: system.mem_ctrls: mytrace2 totalAccess 55670760 totalHit 46780029 overflow 18189 evictTime 0
1295230940000: system.mem_ctrls: mytrace writeOverhead 256665155000 swap 1 write 4518496 373440
1295230940000: system.mem_ctrls: mytrace2 totalAccess 55731413 totalHit 46830935 overflow 18216 evictTime 0
1297873013000: system.mem_ctrls: mytrace writeOverhead 257236100000 swap 1 write 4528495 483520
1297873013000: system.mem_ctrls: mytrace2 totalAccess 55852755 totalHit 46933041 overflow 18262 evictTime 0
1299200968000: system.mem_ctrls: mytrace writeOverhead 257520895000 swap 1 write 4533494 410176
1299200968000: system.mem_ctrls: mytrace2 totalAccess 55913448 totalHit 46984076 overflow 18284 evictTime 0
1300518246000: system.mem_ctrls: mytrace writeOverhead 257806825000 swap 1 write 4538493 451008
1300518246000: system.mem_ctrls: mytrace2 totalAccess 55974000 totalHit 47035068 overflow 18308 evictTime 0
1301841220000: system.mem_ctrls: mytrace writeOverhead 258090335000 swap 1 write 4543492 1024256
1301841220000: system.mem_ctrls: mytrace2 totalAccess 56034585 totalHit 47086035 overflow 18329 evictTime 0
1303167628000: system.mem_ctrls: mytrace writeOverhead 258374145000 swap 1 write 4548491 412928
1303167628000: system.mem_ctrls: mytrace2 totalAccess 56095233 totalHit 47137155 overflow 18351 evictTime 0
1304485311000: system.mem_ctrls: mytrace writeOverhead 258657810000 swap 1 write 4553490 389824
1304485311000: system.mem_ctrls: mytrace2 totalAccess 56155883 totalHit 47188297 overflow 18373 evictTime 0
1305811065000: system.mem_ctrls: mytrace writeOverhead 258940765000 swap 1 write 4558486 1024320
1305811065000: system.mem_ctrls: mytrace2 totalAccess 56216520 totalHit 47239371 overflow 18394 evictTime 0
1308456593000: system.mem_ctrls: mytrace writeOverhead 259514375000 swap 1 write 4568479 406784
1308456593000: system.mem_ctrls: mytrace2 totalAccess 56337732 totalHit 47341159 overflow 18442 evictTime 0
1309779741000: system.mem_ctrls: mytrace writeOverhead 259801460000 swap 1 write 4573478 502656
1309779741000: system.mem_ctrls: mytrace2 totalAccess 56398452 totalHit 47392287 overflow 18467 evictTime 0
1311104727000: system.mem_ctrls: mytrace writeOverhead 260083700000 swap 1 write 4578477 373440
1311104727000: system.mem_ctrls: mytrace2 totalAccess 56458891 totalHit 47443288 overflow 18488 evictTime 0
1312424029000: system.mem_ctrls: mytrace writeOverhead 260369210000 swap 1 write 4583476 404288
1312424029000: system.mem_ctrls: mytrace2 totalAccess 56519419 totalHit 47494328 overflow 18512 evictTime 0
1315078589000: system.mem_ctrls: mytrace writeOverhead 260937360000 swap 1 write 4593474 410176
1315078589000: system.mem_ctrls: mytrace2 totalAccess 56640423 totalHit 47596092 overflow 18555 evictTime 0
1316398266000: system.mem_ctrls: mytrace writeOverhead 261219910000 swap 1 write 4598473 407488
1316398266000: system.mem_ctrls: mytrace2 totalAccess 56700951 totalHit 47647140 overflow 18576 evictTime 0
1321695779000: system.mem_ctrls: mytrace writeOverhead 262365180000 swap 1 write 4618470 1024320
1321695779000: system.mem_ctrls: mytrace2 totalAccess 56943356 totalHit 47851039 overflow 18672 evictTime 0
1323020398000: system.mem_ctrls: mytrace writeOverhead 262649890000 swap 1 write 4623469 410112
1323020398000: system.mem_ctrls: mytrace2 totalAccess 57004165 totalHit 47902062 overflow 18693 evictTime 0
1325663441000: system.mem_ctrls: mytrace writeOverhead 263222610000 swap 1 write 4633467 446912
1325663441000: system.mem_ctrls: mytrace2 totalAccess 57125535 totalHit 48003924 overflow 18739 evictTime 0
1326990197000: system.mem_ctrls: mytrace writeOverhead 263505530000 swap 1 write 4638466 377408
1326990197000: system.mem_ctrls: mytrace2 totalAccess 57186030 totalHit 48054893 overflow 18760 evictTime 0
1328309878000: system.mem_ctrls: mytrace writeOverhead 263789975000 swap 1 write 4643465 406784
1328309878000: system.mem_ctrls: mytrace2 totalAccess 57246677 totalHit 48105926 overflow 18782 evictTime 0
1329636070000: system.mem_ctrls: mytrace writeOverhead 264074855000 swap 1 write 4648464 1225088
1329636070000: system.mem_ctrls: mytrace2 totalAccess 57307111 totalHit 48156820 overflow 18805 evictTime 0
1332280801000: system.mem_ctrls: mytrace writeOverhead 264646420000 swap 1 write 4658460 406784
1332280801000: system.mem_ctrls: mytrace2 totalAccess 57428056 totalHit 48258547 overflow 18852 evictTime 0
1333608222000: system.mem_ctrls: mytrace writeOverhead 264932310000 swap 1 write 4663453 1010560
1333608222000: system.mem_ctrls: mytrace2 totalAccess 57488617 totalHit 48309377 overflow 18875 evictTime 0
1334934654000: system.mem_ctrls: mytrace writeOverhead 265214670000 swap 1 write 4668451 373376
1334934654000: system.mem_ctrls: mytrace2 totalAccess 57549232 totalHit 48360378 overflow 18895 evictTime 0
1336251341000: system.mem_ctrls: mytrace writeOverhead 265499780000 swap 1 write 4673450 446912
1336251341000: system.mem_ctrls: mytrace2 totalAccess 57609717 totalHit 48411285 overflow 18918 evictTime 0
1337574608000: system.mem_ctrls: mytrace writeOverhead 265787445000 swap 1 write 4678449 502656
1337574608000: system.mem_ctrls: mytrace2 totalAccess 57670154 totalHit 48462048 overflow 18943 evictTime 0
1338895306000: system.mem_ctrls: mytrace writeOverhead 266070135000 swap 1 write 4683448 496192
1338895306000: system.mem_ctrls: mytrace2 totalAccess 57730717 totalHit 48513117 overflow 18964 evictTime 0
1340213551000: system.mem_ctrls: mytrace writeOverhead 266355455000 swap 1 write 4688447 450944
1340213551000: system.mem_ctrls: mytrace2 totalAccess 57791373 totalHit 48564173 overflow 18987 evictTime 0
1342869376000: system.mem_ctrls: mytrace writeOverhead 266923860000 swap 1 write 4698446 377472
1342869376000: system.mem_ctrls: mytrace2 totalAccess 57912404 totalHit 48666182 overflow 19032 evictTime 0
1344186555000: system.mem_ctrls: mytrace writeOverhead 267209635000 swap 1 write 4703445 404288
1344186555000: system.mem_ctrls: mytrace2 totalAccess 57973003 totalHit 48717263 overflow 19056 evictTime 0
1345513678000: system.mem_ctrls: mytrace writeOverhead 267493595000 swap 1 write 4708444 450944
1345513678000: system.mem_ctrls: mytrace2 totalAccess 58033672 totalHit 48768386 overflow 19078 evictTime 0
1350809050000: system.mem_ctrls: mytrace writeOverhead 268632915000 swap 1 write 4728440 1073984
1350809050000: system.mem_ctrls: mytrace2 totalAccess 58276176 totalHit 48972458 overflow 19168 evictTime 0
1352120146000: system.mem_ctrls: mytrace writeOverhead 268918305000 swap 1 write 4733439 373248
1352120146000: system.mem_ctrls: mytrace2 totalAccess 58336811 totalHit 49023486 overflow 19191 evictTime 0
1353448171000: system.mem_ctrls: mytrace writeOverhead 269203345000 swap 1 write 4738438 1010560
1353448171000: system.mem_ctrls: mytrace2 totalAccess 58397559 totalHit 49074522 overflow 19213 evictTime 0
1357417205000: system.mem_ctrls: mytrace writeOverhead 270061530000 swap 1 write 4753429 502592
1357417205000: system.mem_ctrls: mytrace2 totalAccess 58579507 totalHit 49227413 overflow 19283 evictTime 0
1358746239000: system.mem_ctrls: mytrace writeOverhead 270347120000 swap 1 write 4758425 410112
1358746239000: system.mem_ctrls: mytrace2 totalAccess 58639979 totalHit 49278205 overflow 19306 evictTime 0
1360062436000: system.mem_ctrls: mytrace writeOverhead 270629455000 swap 1 write 4763421 446976
1360062436000: system.mem_ctrls: mytrace2 totalAccess 58700605 totalHit 49329059 overflow 19325 evictTime 0
1361387654000: system.mem_ctrls: mytrace writeOverhead 270917845000 swap 1 write 4768420 1024448
1361387654000: system.mem_ctrls: mytrace2 totalAccess 58761363 totalHit 49380037 overflow 19350 evictTime 0
1364031037000: system.mem_ctrls: mytrace writeOverhead 271488505000 swap 1 write 4778419 1010560
1364031037000: system.mem_ctrls: mytrace2 totalAccess 58882326 totalHit 49481610 overflow 19395 evictTime 0
1365358463000: system.mem_ctrls: mytrace writeOverhead 271773640000 swap 1 write 4783418 844096
1365358463000: system.mem_ctrls: mytrace2 totalAccess 58942872 totalHit 49532296 overflow 19416 evictTime 0
1366685188000: system.mem_ctrls: mytrace writeOverhead 272061205000 swap 1 write 4788417 373440
1366685188000: system.mem_ctrls: mytrace2 totalAccess 59003497 totalHit 49583119 overflow 19440 evictTime 0
1368008755000: system.mem_ctrls: mytrace writeOverhead 272350135000 swap 1 write 4793409 843904
1368008755000: system.mem_ctrls: mytrace2 totalAccess 59064450 totalHit 49633986 overflow 19464 evictTime 0
1371966238000: system.mem_ctrls: mytrace writeOverhead 273215635000 swap 1 write 4808362 1025088
1371966238000: system.mem_ctrls: mytrace2 totalAccess 59247927 totalHit 49786265 overflow 19530 evictTime 0
1374616969000: system.mem_ctrls: mytrace writeOverhead 273791785000 swap 1 write 4818350 496192
1374616969000: system.mem_ctrls: mytrace2 totalAccess 59369597 totalHit 49887813 overflow 19576 evictTime 0
1377265485000: system.mem_ctrls: mytrace writeOverhead 274363620000 swap 1 write 4828348 1010560
1377265485000: system.mem_ctrls: mytrace2 totalAccess 59490870 totalHit 49989508 overflow 19621 evictTime 0
1378591325000: system.mem_ctrls: mytrace writeOverhead 274650910000 swap 1 write 4833347 481664
1378591325000: system.mem_ctrls: mytrace2 totalAccess 59551420 totalHit 50040278 overflow 19645 evictTime 0
1381241850000: system.mem_ctrls: mytrace writeOverhead 275222800000 swap 1 write 4843345 1024320
1381241850000: system.mem_ctrls: mytrace2 totalAccess 59672643 totalHit 50142047 overflow 19691 evictTime 0
1382569623000: system.mem_ctrls: mytrace writeOverhead 275507475000 swap 1 write 4848342 1012992
1382569623000: system.mem_ctrls: mytrace2 totalAccess 59733340 totalHit 50193054 overflow 19713 evictTime 0
1391804881000: system.mem_ctrls: mytrace writeOverhead 277535705000 swap 1 write 4883226 1010560
1391804881000: system.mem_ctrls: mytrace2 totalAccess 60161500 totalHit 50547915 overflow 19872 evictTime 0
1394436213000: system.mem_ctrls: mytrace writeOverhead 278122450000 swap 1 write 4893151 405888
1394436213000: system.mem_ctrls: mytrace2 totalAccess 60284507 totalHit 50648172 overflow 19916 evictTime 0
1395762758000: system.mem_ctrls: mytrace writeOverhead 278407445000 swap 1 write 4898141 377472
1395762758000: system.mem_ctrls: mytrace2 totalAccess 60345376 totalHit 50698908 overflow 19936 evictTime 0
1398401591000: system.mem_ctrls: mytrace writeOverhead 278980310000 swap 1 write 4908139 1010496
1398401591000: system.mem_ctrls: mytrace2 totalAccess 60466447 totalHit 50800533 overflow 19983 evictTime 0
1399726809000: system.mem_ctrls: mytrace writeOverhead 279266725000 swap 1 write 4913138 1073984
1399726809000: system.mem_ctrls: mytrace2 totalAccess 60526949 totalHit 50851255 overflow 20006 evictTime 0
1401044105000: system.mem_ctrls: mytrace writeOverhead 279553610000 swap 1 write 4918137 406784
1401044105000: system.mem_ctrls: mytrace2 totalAccess 60587692 totalHit 50902288 overflow 20030 evictTime 0
1402370151000: system.mem_ctrls: mytrace writeOverhead 279836800000 swap 1 write 4923136 446976
1402370151000: system.mem_ctrls: mytrace2 totalAccess 60648296 totalHit 50953172 overflow 20050 evictTime 0
1403698320000: system.mem_ctrls: mytrace writeOverhead 280126390000 swap 1 write 4928135 1024832
1403698320000: system.mem_ctrls: mytrace2 totalAccess 60708863 totalHit 51004045 overflow 20077 evictTime 0
1405015663000: system.mem_ctrls: mytrace writeOverhead 280409690000 swap 1 write 4933134 844224
1405015663000: system.mem_ctrls: mytrace2 totalAccess 60769488 totalHit 51054908 overflow 20097 evictTime 0
1406338528000: system.mem_ctrls: mytrace writeOverhead 280696225000 swap 1 write 4938133 407424
1406338528000: system.mem_ctrls: mytrace2 totalAccess 60830010 totalHit 51105625 overflow 20120 evictTime 0
1407666370000: system.mem_ctrls: mytrace writeOverhead 280980090000 swap 1 write 4943128 1024448
1407666370000: system.mem_ctrls: mytrace2 totalAccess 60890390 totalHit 51156157 overflow 20140 evictTime 0
1408982935000: system.mem_ctrls: mytrace writeOverhead 281270640000 swap 1 write 4948127 450816
1408982935000: system.mem_ctrls: mytrace2 totalAccess 60950729 totalHit 51206818 overflow 20168 evictTime 0
1411628224000: system.mem_ctrls: mytrace writeOverhead 281840090000 swap 1 write 4958120 481664
1411628224000: system.mem_ctrls: mytrace2 totalAccess 61071759 totalHit 51308178 overflow 20210 evictTime 0
1420881581000: system.mem_ctrls: mytrace writeOverhead 283842255000 swap 1 write 4993118 1225088
1420881581000: system.mem_ctrls: mytrace2 totalAccess 61495957 totalHit 51664492 overflow 20371 evictTime 0
1422208580000: system.mem_ctrls: mytrace writeOverhead 284127190000 swap 1 write 4998117 1225088
1422208580000: system.mem_ctrls: mytrace2 totalAccess 61556584 totalHit 51715441 overflow 20393 evictTime 0
1428826014000: system.mem_ctrls: mytrace writeOverhead 285552915000 swap 1 write 5023113 400064
1428826014000: system.mem_ctrls: mytrace2 totalAccess 61860115 totalHit 51970518 overflow 20504 evictTime 0
1430145580000: system.mem_ctrls: mytrace writeOverhead 285842135000 swap 1 write 5028098 397888
1430145580000: system.mem_ctrls: mytrace2 totalAccess 61921099 totalHit 52020998 overflow 20526 evictTime 0
1431465057000: system.mem_ctrls: mytrace writeOverhead 286133545000 swap 1 write 5033083 1073344
1431465057000: system.mem_ctrls: mytrace2 totalAccess 61982433 totalHit 52071648 overflow 20549 evictTime 0
1432786476000: system.mem_ctrls: mytrace writeOverhead 286423210000 swap 1 write 5038066 502720
1432786476000: system.mem_ctrls: mytrace2 totalAccess 62043352 totalHit 52122260 overflow 20573 evictTime 0
1440722436000: system.mem_ctrls: mytrace writeOverhead 288148620000 swap 1 write 5067974 391744
1440722436000: system.mem_ctrls: mytrace2 totalAccess 62409143 totalHit 52426487 overflow 20704 evictTime 0
1447330040000: system.mem_ctrls: mytrace writeOverhead 289600150000 swap 1 write 5092910 502656
1447330040000: system.mem_ctrls: mytrace2 totalAccess 62714913 totalHit 52679782 overflow 20818 evictTime 0
1452632437000: system.mem_ctrls: mytrace writeOverhead 290738950000 swap 1 write 5112909 350976
1452632437000: system.mem_ctrls: mytrace2 totalAccess 62957094 totalHit 52883865 overflow 20911 evictTime 0
1468548227000: system.mem_ctrls: mytrace writeOverhead 294173475000 swap 1 write 5172898 447360
1468548227000: system.mem_ctrls: mytrace2 totalAccess 63685413 totalHit 53495360 overflow 21187 evictTime 0
1481797550000: system.mem_ctrls: mytrace writeOverhead 297031670000 swap 1 write 5222895 1024512
1481797550000: system.mem_ctrls: mytrace2 totalAccess 64292630 totalHit 54005359 overflow 21414 evictTime 0
1485777650000: system.mem_ctrls: mytrace writeOverhead 297884835000 swap 1 write 5237890 1025408
1485777650000: system.mem_ctrls: mytrace2 totalAccess 64474757 totalHit 54158223 overflow 21477 evictTime 0
1488447089000: system.mem_ctrls: mytrace writeOverhead 298458800000 swap 1 write 5247883 389760
1488447089000: system.mem_ctrls: mytrace2 totalAccess 64596116 totalHit 54259968 overflow 21524 evictTime 0
1489764790000: system.mem_ctrls: mytrace writeOverhead 298747055000 swap 1 write 5252882 450816
1489764790000: system.mem_ctrls: mytrace2 totalAccess 64656915 totalHit 54311009 overflow 21549 evictTime 0
1503025750000: system.mem_ctrls: mytrace writeOverhead 301602800000 swap 1 write 5302881 1025088
1503025750000: system.mem_ctrls: mytrace2 totalAccess 65263124 totalHit 54820567 overflow 21777 evictTime 0
1510981597000: system.mem_ctrls: mytrace writeOverhead 303315025000 swap 1 write 5332878 502592
1510981597000: system.mem_ctrls: mytrace2 totalAccess 65627006 totalHit 55126251 overflow 21911 evictTime 0
1512300903000: system.mem_ctrls: mytrace writeOverhead 303598740000 swap 1 write 5337872 479616
1512300903000: system.mem_ctrls: mytrace2 totalAccess 65687655 totalHit 55177186 overflow 21932 evictTime 0
1532185350000: system.mem_ctrls: mytrace writeOverhead 307879410000 swap 1 write 5412869 397632
1532185350000: system.mem_ctrls: mytrace2 totalAccess 66596658 totalHit 55941799 overflow 22276 evictTime 0
1546787300000: system.mem_ctrls: mytrace writeOverhead 311023625000 swap 1 write 5467858 1013888
1546787300000: system.mem_ctrls: mytrace2 totalAccess 67263699 totalHit 56501758 overflow 22525 evictTime 0
1549439543000: system.mem_ctrls: mytrace writeOverhead 311595865000 swap 1 write 5477856 1024448
1549439543000: system.mem_ctrls: mytrace2 totalAccess 67385116 totalHit 56603869 overflow 22572 evictTime 0
1550768544000: system.mem_ctrls: mytrace writeOverhead 311879535000 swap 1 write 5482855 377408
1550768544000: system.mem_ctrls: mytrace2 totalAccess 67445862 totalHit 56654971 overflow 22593 evictTime 0
1552089615000: system.mem_ctrls: mytrace writeOverhead 312167350000 swap 1 write 5487854 406784
1552089615000: system.mem_ctrls: mytrace2 totalAccess 67506627 totalHit 56706054 overflow 22618 evictTime 0
1553411329000: system.mem_ctrls: mytrace writeOverhead 312450560000 swap 1 write 5492853 502656
1553411329000: system.mem_ctrls: mytrace2 totalAccess 67567225 totalHit 56756936 overflow 22638 evictTime 0
1554738048000: system.mem_ctrls: mytrace writeOverhead 312737050000 swap 1 write 5497852 447104
1554738048000: system.mem_ctrls: mytrace2 totalAccess 67627718 totalHit 56807787 overflow 22662 evictTime 0
1556060726000: system.mem_ctrls: mytrace writeOverhead 313021405000 swap 1 write 5502851 408192
1556060726000: system.mem_ctrls: mytrace2 totalAccess 67688510 totalHit 56858835 overflow 22683 evictTime 0
1557388741000: system.mem_ctrls: mytrace writeOverhead 313305645000 swap 1 write 5507850 1010496
1557388741000: system.mem_ctrls: mytrace2 totalAccess 67749274 totalHit 56909871 overflow 22704 evictTime 0
1558719285000: system.mem_ctrls: mytrace writeOverhead 313592155000 swap 1 write 5512849 484736
1558719285000: system.mem_ctrls: mytrace2 totalAccess 67809754 totalHit 56960719 overflow 22728 evictTime 0
1560042936000: system.mem_ctrls: mytrace writeOverhead 313877420000 swap 1 write 5517848 1225088
1560042936000: system.mem_ctrls: mytrace2 totalAccess 67870548 totalHit 57011773 overflow 22750 evictTime 0
1566660233000: system.mem_ctrls: mytrace writeOverhead 315315005000 swap 1 write 5542805 405888
1566660233000: system.mem_ctrls: mytrace2 totalAccess 68174675 totalHit 57265665 overflow 22864 evictTime 0
1569323987000: system.mem_ctrls: mytrace writeOverhead 315885580000 swap 1 write 5552803 483392
1569323987000: system.mem_ctrls: mytrace2 totalAccess 68295684 totalHit 57367288 overflow 22909 evictTime 0
1570646792000: system.mem_ctrls: mytrace writeOverhead 316169810000 swap 1 write 5557802 417984
1570646792000: system.mem_ctrls: mytrace2 totalAccess 68356211 totalHit 57418057 overflow 22930 evictTime 0
1573316524000: system.mem_ctrls: mytrace writeOverhead 316742285000 swap 1 write 5567800 393792
1573316524000: system.mem_ctrls: mytrace2 totalAccess 68477330 totalHit 57519792 overflow 22977 evictTime 0
1574636337000: system.mem_ctrls: mytrace writeOverhead 317028260000 swap 1 write 5572799 397952
1574636337000: system.mem_ctrls: mytrace2 totalAccess 68538024 totalHit 57570762 overflow 23000 evictTime 0
1575968372000: system.mem_ctrls: mytrace writeOverhead 317313255000 swap 1 write 5577798 1025088
1575968372000: system.mem_ctrls: mytrace2 totalAccess 68598520 totalHit 57621546 overflow 23022 evictTime 0
1577289208000: system.mem_ctrls: mytrace writeOverhead 317598975000 swap 1 write 5582797 502720
1577289208000: system.mem_ctrls: mytrace2 totalAccess 68659063 totalHit 57672403 overflow 23045 evictTime 0
1578615957000: system.mem_ctrls: mytrace writeOverhead 317885465000 swap 1 write 5587796 1221696
1578615957000: system.mem_ctrls: mytrace2 totalAccess 68719627 totalHit 57723231 overflow 23069 evictTime 0
1579942160000: system.mem_ctrls: mytrace writeOverhead 318172595000 swap 1 write 5592791 1221696
1579942160000: system.mem_ctrls: mytrace2 totalAccess 68780383 totalHit 57774067 overflow 23092 evictTime 0
1582603137000: system.mem_ctrls: mytrace writeOverhead 318749860000 swap 1 write 5602765 1012224
1582603137000: system.mem_ctrls: mytrace2 totalAccess 68902473 totalHit 57875400 overflow 23136 evictTime 0
1583926318000: system.mem_ctrls: mytrace writeOverhead 319043055000 swap 1 write 5607734 496256
1583926318000: system.mem_ctrls: mytrace2 totalAccess 68963927 totalHit 57925721 overflow 23159 evictTime 0
1610455345000: system.mem_ctrls: mytrace writeOverhead 324770465000 swap 1 write 5707666 450944
1610455345000: system.mem_ctrls: mytrace2 totalAccess 70177707 totalHit 58942334 overflow 23612 evictTime 0
1611784206000: system.mem_ctrls: mytrace writeOverhead 325056155000 swap 1 write 5712664 1024448
1611784206000: system.mem_ctrls: mytrace2 totalAccess 70238314 totalHit 58993263 overflow 23635 evictTime 0
1619750566000: system.mem_ctrls: mytrace writeOverhead 326771085000 swap 1 write 5742653 481664
1619750566000: system.mem_ctrls: mytrace2 totalAccess 70602411 totalHit 59298962 overflow 23771 evictTime 0
1621069937000: system.mem_ctrls: mytrace writeOverhead 327059125000 swap 1 write 5747639 377344
1621069937000: system.mem_ctrls: mytrace2 totalAccess 70663358 totalHit 59349591 overflow 23793 evictTime 0
1622387846000: system.mem_ctrls: mytrace writeOverhead 327350250000 swap 1 write 5752624 350912
1622387846000: system.mem_ctrls: mytrace2 totalAccess 70724604 totalHit 59400193 overflow 23816 evictTime 0
1623708133000: system.mem_ctrls: mytrace writeOverhead 327638765000 swap 1 write 5757609 414208
1623708133000: system.mem_ctrls: mytrace2 totalAccess 70785773 totalHit 59450957 overflow 23838 evictTime 0
1631654957000: system.mem_ctrls: mytrace writeOverhead 329368895000 swap 1 write 5787524 406784
1631654957000: system.mem_ctrls: mytrace2 totalAccess 71151362 totalHit 59754893 overflow 23973 evictTime 0
1643588931000: system.mem_ctrls: mytrace writeOverhead 331965485000 swap 1 write 5832447 502592
1643588931000: system.mem_ctrls: mytrace2 totalAccess 71700450 totalHit 60211932 overflow 24178 evictTime 0
1660840237000: system.mem_ctrls: mytrace writeOverhead 335682040000 swap 1 write 5897446 1024320
1660840237000: system.mem_ctrls: mytrace2 totalAccess 72489121 totalHit 60874434 overflow 24475 evictTime 0
1662156409000: system.mem_ctrls: mytrace writeOverhead 335969645000 swap 1 write 5902445 417984
1662156409000: system.mem_ctrls: mytrace2 totalAccess 72549950 totalHit 60925469 overflow 24499 evictTime 0
1672786403000: system.mem_ctrls: mytrace writeOverhead 338255415000 swap 1 write 5942434 1024832
1672786403000: system.mem_ctrls: mytrace2 totalAccess 73035091 totalHit 61332502 overflow 24678 evictTime 0
1674103031000: system.mem_ctrls: mytrace writeOverhead 338543770000 swap 1 write 5947433 450624
1674103031000: system.mem_ctrls: mytrace2 totalAccess 73095796 totalHit 61383445 overflow 24703 evictTime 0
1691380043000: system.mem_ctrls: mytrace writeOverhead 342260185000 swap 1 write 6012428 1221696
1691380043000: system.mem_ctrls: mytrace2 totalAccess 73885179 totalHit 62046237 overflow 24997 evictTime 0
1692706364000: system.mem_ctrls: mytrace writeOverhead 342541700000 swap 1 write 6017424 508416
1692706364000: system.mem_ctrls: mytrace2 totalAccess 73945807 totalHit 62096993 overflow 25015 evictTime 0
1741746784000: system.mem_ctrls: mytrace writeOverhead 353103135000 swap 1 write 6202407 483520
1741746784000: system.mem_ctrls: mytrace2 totalAccess 76190373 totalHit 63984513 overflow 25859 evictTime 0
1743074086000: system.mem_ctrls: mytrace writeOverhead 353389160000 swap 1 write 6207400 496192
1743074086000: system.mem_ctrls: mytrace2 totalAccess 76251009 totalHit 64035387 overflow 25882 evictTime 0
1744393194000: system.mem_ctrls: mytrace writeOverhead 353675895000 swap 1 write 6212399 1010560
1744393194000: system.mem_ctrls: mytrace2 totalAccess 76311584 totalHit 64086268 overflow 25906 evictTime 0
1745715838000: system.mem_ctrls: mytrace writeOverhead 353962040000 swap 1 write 6217398 496064
1745715838000: system.mem_ctrls: mytrace2 totalAccess 76372310 totalHit 64137254 overflow 25929 evictTime 0
1747042055000: system.mem_ctrls: mytrace writeOverhead 354246320000 swap 1 write 6222397 496000
1747042055000: system.mem_ctrls: mytrace2 totalAccess 76432837 totalHit 64188167 overflow 25951 evictTime 0
1748362170000: system.mem_ctrls: mytrace writeOverhead 354533310000 swap 1 write 6227396 397824
1748362170000: system.mem_ctrls: mytrace2 totalAccess 76493688 totalHit 64239284 overflow 25975 evictTime 0
1749687057000: system.mem_ctrls: mytrace writeOverhead 354815545000 swap 1 write 6232395 1014400
1749687057000: system.mem_ctrls: mytrace2 totalAccess 76554276 totalHit 64290144 overflow 25994 evictTime 0
1751015157000: system.mem_ctrls: mytrace writeOverhead 355103065000 swap 1 write 6237394 350912
1751015157000: system.mem_ctrls: mytrace2 totalAccess 76614869 totalHit 64341071 overflow 26019 evictTime 0
1753654823000: system.mem_ctrls: mytrace writeOverhead 355673810000 swap 1 write 6247381 844224
1753654823000: system.mem_ctrls: mytrace2 totalAccess 76736642 totalHit 64443049 overflow 26062 evictTime 0
1756309740000: system.mem_ctrls: mytrace writeOverhead 356251265000 swap 1 write 6257361 1221696
1756309740000: system.mem_ctrls: mytrace2 totalAccess 76858314 totalHit 64544457 overflow 26109 evictTime 0
1757630456000: system.mem_ctrls: mytrace writeOverhead 356537545000 swap 1 write 6262360 483456
1757630456000: system.mem_ctrls: mytrace2 totalAccess 76918854 totalHit 64595221 overflow 26132 evictTime 0
1758946286000: system.mem_ctrls: mytrace writeOverhead 356822030000 swap 1 write 6267359 1025088
1758946286000: system.mem_ctrls: mytrace2 totalAccess 76979310 totalHit 64645901 overflow 26153 evictTime 0
1760281239000: system.mem_ctrls: mytrace writeOverhead 357110455000 swap 1 write 6272358 1010624
1760281239000: system.mem_ctrls: mytrace2 totalAccess 77039608 totalHit 64696531 overflow 26179 evictTime 0
1761601310000: system.mem_ctrls: mytrace writeOverhead 357391825000 swap 1 write 6277357 508416
1761601310000: system.mem_ctrls: mytrace2 totalAccess 77100118 totalHit 64747301 overflow 26197 evictTime 0
1764254878000: system.mem_ctrls: mytrace writeOverhead 357965705000 swap 1 write 6287356 391040
1764254878000: system.mem_ctrls: mytrace2 totalAccess 77221485 totalHit 64849094 overflow 26244 evictTime 0
1765575295000: system.mem_ctrls: mytrace writeOverhead 358252090000 swap 1 write 6292354 508416
1765575295000: system.mem_ctrls: mytrace2 totalAccess 77282189 totalHit 64899998 overflow 26267 evictTime 0
1766890739000: system.mem_ctrls: mytrace writeOverhead 358537825000 swap 1 write 6297352 417920
1766890739000: system.mem_ctrls: mytrace2 totalAccess 77342759 totalHit 64950892 overflow 26290 evictTime 0
1768214793000: system.mem_ctrls: mytrace writeOverhead 358823590000 swap 1 write 6302345 404288
1768214793000: system.mem_ctrls: mytrace2 totalAccess 77403308 totalHit 65001735 overflow 26313 evictTime 0
1769545898000: system.mem_ctrls: mytrace writeOverhead 359109630000 swap 1 write 6307342 1024832
1769545898000: system.mem_ctrls: mytrace2 totalAccess 77463768 totalHit 65052515 overflow 26337 evictTime 0
1770859109000: system.mem_ctrls: mytrace writeOverhead 359394910000 swap 1 write 6312337 450944
1770859109000: system.mem_ctrls: mytrace2 totalAccess 77524564 totalHit 65103367 overflow 26358 evictTime 0
1774813126000: system.mem_ctrls: mytrace writeOverhead 360270595000 swap 1 write 6327285 1221696
1774813126000: system.mem_ctrls: mytrace2 totalAccess 77708107 totalHit 65255002 overflow 26430 evictTime 0
1777449038000: system.mem_ctrls: mytrace writeOverhead 360853055000 swap 1 write 6337216 1024448
1777449038000: system.mem_ctrls: mytrace2 totalAccess 77831074 totalHit 65355395 overflow 26471 evictTime 0
1793332200000: system.mem_ctrls: mytrace writeOverhead 364279375000 swap 1 write 6397211 389760
1793332200000: system.mem_ctrls: mytrace2 totalAccess 78557566 totalHit 65965484 overflow 26743 evictTime 0
1794650537000: system.mem_ctrls: mytrace writeOverhead 364565165000 swap 1 write 6402205 450880
1794650537000: system.mem_ctrls: mytrace2 totalAccess 78618240 totalHit 66016274 overflow 26765 evictTime 0
1801264188000: system.mem_ctrls: mytrace writeOverhead 365992785000 swap 1 write 6427204 844160
1801264188000: system.mem_ctrls: mytrace2 totalAccess 78921409 totalHit 66271265 overflow 26880 evictTime 0
1803911382000: system.mem_ctrls: mytrace writeOverhead 366560250000 swap 1 write 6437203 1025088
1803911382000: system.mem_ctrls: mytrace2 totalAccess 79042489 totalHit 66373192 overflow 26923 evictTime 0
1810521686000: system.mem_ctrls: mytrace writeOverhead 367987425000 swap 1 write 6462202 1025088
1810521686000: system.mem_ctrls: mytrace2 totalAccess 79345334 totalHit 66628131 overflow 27039 evictTime 0
1815780811000: system.mem_ctrls: mytrace writeOverhead 369147680000 swap 1 write 6482127 496192
1815780811000: system.mem_ctrls: mytrace2 totalAccess 79590192 totalHit 66830227 overflow 27126 evictTime 0
1822346905000: system.mem_ctrls: mytrace writeOverhead 370611150000 swap 1 write 6506979 502592
1822346905000: system.mem_ctrls: mytrace2 totalAccess 79897015 totalHit 67082225 overflow 27242 evictTime 0
1835530136000: system.mem_ctrls: mytrace writeOverhead 373532130000 swap 1 write 6556805 844224
1835530136000: system.mem_ctrls: mytrace2 totalAccess 80511442 totalHit 67587729 overflow 27465 evictTime 0
1851408428000: system.mem_ctrls: mytrace writeOverhead 376957935000 swap 1 write 6616794 1024256
1851408428000: system.mem_ctrls: mytrace2 totalAccess 81238478 totalHit 68198683 overflow 27737 evictTime 0
1852725687000: system.mem_ctrls: mytrace writeOverhead 377244905000 swap 1 write 6621793 417984
1852725687000: system.mem_ctrls: mytrace2 totalAccess 81299241 totalHit 68249752 overflow 27761 evictTime 0
1863307101000: system.mem_ctrls: mytrace writeOverhead 379529505000 swap 1 write 6661792 843968
1863307101000: system.mem_ctrls: mytrace2 totalAccess 81783718 totalHit 68656626 overflow 27942 evictTime 0
1864632558000: system.mem_ctrls: mytrace writeOverhead 379817115000 swap 1 write 6666791 1025088
1864632558000: system.mem_ctrls: mytrace2 totalAccess 81844308 totalHit 68707420 overflow 27966 evictTime 0
1929585121000: system.mem_ctrls: mytrace writeOverhead 393810635000 swap 1 write 6911762 377472
1929585121000: system.mem_ctrls: mytrace2 totalAccess 84815857 totalHit 71204043 overflow 29076 evictTime 0
1930905788000: system.mem_ctrls: mytrace writeOverhead 394097100000 swap 1 write 6916761 400064
1930905788000: system.mem_ctrls: mytrace2 totalAccess 84876585 totalHit 71255003 overflow 29099 evictTime 0
1932233856000: system.mem_ctrls: mytrace writeOverhead 394383045000 swap 1 write 6921760 1013632
1932233856000: system.mem_ctrls: mytrace2 totalAccess 84937372 totalHit 71305952 overflow 29121 evictTime 0
1933566155000: system.mem_ctrls: mytrace writeOverhead 394668430000 swap 1 write 6926759 1073984
1933566155000: system.mem_ctrls: mytrace2 totalAccess 84997931 totalHit 71356897 overflow 29144 evictTime 0
1934885618000: system.mem_ctrls: mytrace writeOverhead 394954415000 swap 1 write 6931758 450624
1934885618000: system.mem_ctrls: mytrace2 totalAccess 85058543 totalHit 71407797 overflow 29167 evictTime 0
1936211363000: system.mem_ctrls: mytrace writeOverhead 395241660000 swap 1 write 6936757 446912
1936211363000: system.mem_ctrls: mytrace2 totalAccess 85119138 totalHit 71458658 overflow 29191 evictTime 0
1938857793000: system.mem_ctrls: mytrace writeOverhead 395813405000 swap 1 write 6946756 844224
1938857793000: system.mem_ctrls: mytrace2 totalAccess 85240364 totalHit 71560528 overflow 29237 evictTime 0
1940179731000: system.mem_ctrls: mytrace writeOverhead 396099055000 swap 1 write 6951755 1225088
1940179731000: system.mem_ctrls: mytrace2 totalAccess 85300783 totalHit 71611229 overflow 29260 evictTime 0
1941509629000: system.mem_ctrls: mytrace writeOverhead 396384480000 swap 1 write 6956754 1024320
1941509629000: system.mem_ctrls: mytrace2 totalAccess 85361272 totalHit 71662100 overflow 29283 evictTime 0
1942829449000: system.mem_ctrls: mytrace writeOverhead 396669515000 swap 1 write 6961753 451392
1942829449000: system.mem_ctrls: mytrace2 totalAccess 85421878 totalHit 71713013 overflow 29305 evictTime 0
1945480051000: system.mem_ctrls: mytrace writeOverhead 397242530000 swap 1 write 6971730 450944
1945480051000: system.mem_ctrls: mytrace2 totalAccess 85543762 totalHit 71814695 overflow 29348 evictTime 0
1948136968000: system.mem_ctrls: mytrace writeOverhead 397819930000 swap 1 write 6981711 481984
1948136968000: system.mem_ctrls: mytrace2 totalAccess 85665309 totalHit 71916132 overflow 29396 evictTime 0
1950788072000: system.mem_ctrls: mytrace writeOverhead 398390850000 swap 1 write 6991710 1221696
1950788072000: system.mem_ctrls: mytrace2 totalAccess 85786537 totalHit 72017952 overflow 29441 evictTime 0
1952117016000: system.mem_ctrls: mytrace writeOverhead 398676695000 swap 1 write 6996709 843904
1952117016000: system.mem_ctrls: mytrace2 totalAccess 85847212 totalHit 72068909 overflow 29464 evictTime 0
1953436883000: system.mem_ctrls: mytrace writeOverhead 398963065000 swap 1 write 7001708 1025088
1953436883000: system.mem_ctrls: mytrace2 totalAccess 85907721 totalHit 72119656 overflow 29487 evictTime 0
1954777986000: system.mem_ctrls: mytrace writeOverhead 399248515000 swap 1 write 7006707 391040
1954777986000: system.mem_ctrls: mytrace2 totalAccess 85968340 totalHit 72170629 overflow 29510 evictTime 0
1956104463000: system.mem_ctrls: mytrace writeOverhead 399534120000 swap 1 write 7011706 479680
1956104463000: system.mem_ctrls: mytrace2 totalAccess 86028884 totalHit 72221373 overflow 29532 evictTime 0
1957431579000: system.mem_ctrls: mytrace writeOverhead 399817285000 swap 1 write 7016705 415872
1957431579000: system.mem_ctrls: mytrace2 totalAccess 86089364 totalHit 72272125 overflow 29552 evictTime 0
1958763578000: system.mem_ctrls: mytrace writeOverhead 400105120000 swap 1 write 7021704 483776
1958763578000: system.mem_ctrls: mytrace2 totalAccess 86149903 totalHit 72322954 overflow 29577 evictTime 0
1961410655000: system.mem_ctrls: mytrace writeOverhead 400677880000 swap 1 write 7031703 393728
1961410655000: system.mem_ctrls: mytrace2 totalAccess 86271103 totalHit 72424658 overflow 29624 evictTime 0
1964069711000: system.mem_ctrls: mytrace writeOverhead 401257655000 swap 1 write 7041684 446976
1964069711000: system.mem_ctrls: mytrace2 totalAccess 86393015 totalHit 72526074 overflow 29672 evictTime 0
1970670722000: system.mem_ctrls: mytrace writeOverhead 402716290000 swap 1 write 7066532 397952
1970670722000: system.mem_ctrls: mytrace2 totalAccess 86700040 totalHit 72777407 overflow 29780 evictTime 0
1989250943000: system.mem_ctrls: mytrace writeOverhead 406720720000 swap 1 write 7136514 481664
1989250943000: system.mem_ctrls: mytrace2 totalAccess 87547959 totalHit 73488309 overflow 30097 evictTime 0
1991897264000: system.mem_ctrls: mytrace writeOverhead 407292525000 swap 1 write 7146513 450944
1991897264000: system.mem_ctrls: mytrace2 totalAccess 87668996 totalHit 73590264 overflow 30145 evictTime 0
1998531923000: system.mem_ctrls: mytrace writeOverhead 408715475000 swap 1 write 7171501 416512
1998531923000: system.mem_ctrls: mytrace2 totalAccess 87971989 totalHit 73844894 overflow 30254 evictTime 0
1999855317000: system.mem_ctrls: mytrace writeOverhead 409003940000 swap 1 write 7176499 414144
1999855317000: system.mem_ctrls: mytrace2 totalAccess 88032649 totalHit 73895898 overflow 30280 evictTime 0
2001180691000: system.mem_ctrls: mytrace writeOverhead 409287490000 swap 1 write 7181498 2541952
2001180691000: system.mem_ctrls: mytrace2 totalAccess 88093234 totalHit 73946849 overflow 30301 evictTime 0
2002501031000: system.mem_ctrls: mytrace writeOverhead 409574470000 swap 1 write 7186497 1010560
2002501031000: system.mem_ctrls: mytrace2 totalAccess 88154077 totalHit 73997990 overflow 30325 evictTime 0
2006486560000: system.mem_ctrls: mytrace writeOverhead 410433015000 swap 1 write 7201476 1221696
2006486560000: system.mem_ctrls: mytrace2 totalAccess 88336641 totalHit 74150514 overflow 30390 evictTime 0
2010450004000: system.mem_ctrls: mytrace writeOverhead 411298955000 swap 1 write 7216433 450880
2010450004000: system.mem_ctrls: mytrace2 totalAccess 88520084 totalHit 74302567 overflow 30455 evictTime 0
2011768615000: system.mem_ctrls: mytrace writeOverhead 411593175000 swap 1 write 7221418 844224
2011768615000: system.mem_ctrls: mytrace2 totalAccess 88580893 totalHit 74353139 overflow 30484 evictTime 0
2013093019000: system.mem_ctrls: mytrace writeOverhead 411878365000 swap 1 write 7226403 496256
2013093019000: system.mem_ctrls: mytrace2 totalAccess 88641702 totalHit 74403770 overflow 30504 evictTime 0
2015734224000: system.mem_ctrls: mytrace writeOverhead 412457290000 swap 1 write 7236373 1012416
2015734224000: system.mem_ctrls: mytrace2 totalAccess 88763144 totalHit 74504717 overflow 30552 evictTime 0
2018381327000: system.mem_ctrls: mytrace writeOverhead 413034200000 swap 1 write 7246344 502656
2018381327000: system.mem_ctrls: mytrace2 totalAccess 88885294 totalHit 74605723 overflow 30593 evictTime 0
2019703720000: system.mem_ctrls: mytrace writeOverhead 413324105000 swap 1 write 7251329 481984
2019703720000: system.mem_ctrls: mytrace2 totalAccess 88946461 totalHit 74656154 overflow 30614 evictTime 0
2021028268000: system.mem_ctrls: mytrace writeOverhead 413618980000 swap 1 write 7256314 2141952
2021028268000: system.mem_ctrls: mytrace2 totalAccess 89007675 totalHit 74706482 overflow 30639 evictTime 0
2022346701000: system.mem_ctrls: mytrace writeOverhead 413907690000 swap 1 write 7261297 844160
2022346701000: system.mem_ctrls: mytrace2 totalAccess 89068661 totalHit 74756918 overflow 30660 evictTime 0
2023662658000: system.mem_ctrls: mytrace writeOverhead 414195945000 swap 1 write 7266288 451008
2023662658000: system.mem_ctrls: mytrace2 totalAccess 89129317 totalHit 74807748 overflow 30685 evictTime 0
2024989683000: system.mem_ctrls: mytrace writeOverhead 414481740000 swap 1 write 7271281 502592
2024989683000: system.mem_ctrls: mytrace2 totalAccess 89190020 totalHit 74858709 overflow 30708 evictTime 0
2027641504000: system.mem_ctrls: mytrace writeOverhead 415053570000 swap 1 write 7281279 1010560
2027641504000: system.mem_ctrls: mytrace2 totalAccess 89311003 totalHit 74960510 overflow 30757 evictTime 0
2030305396000: system.mem_ctrls: mytrace writeOverhead 415621025000 swap 1 write 7291278 1013888
2030305396000: system.mem_ctrls: mytrace2 totalAccess 89432158 totalHit 75062499 overflow 30800 evictTime 0
2031630599000: system.mem_ctrls: mytrace writeOverhead 415904275000 swap 1 write 7296277 481344
2031630599000: system.mem_ctrls: mytrace2 totalAccess 89492875 totalHit 75113494 overflow 30820 evictTime 0
2032957868000: system.mem_ctrls: mytrace writeOverhead 416191340000 swap 1 write 7301276 473024
2032957868000: system.mem_ctrls: mytrace2 totalAccess 89553430 totalHit 75164475 overflow 30845 evictTime 0
2036928329000: system.mem_ctrls: mytrace writeOverhead 417047780000 swap 1 write 7316275 1073664
2036928329000: system.mem_ctrls: mytrace2 totalAccess 89735131 totalHit 75317470 overflow 30915 evictTime 0
2038259140000: system.mem_ctrls: mytrace writeOverhead 417334500000 swap 1 write 7321274 496000
2038259140000: system.mem_ctrls: mytrace2 totalAccess 89795598 totalHit 75368411 overflow 30940 evictTime 0
2039583426000: system.mem_ctrls: mytrace writeOverhead 417617585000 swap 1 write 7326273 1073408
2039583426000: system.mem_ctrls: mytrace2 totalAccess 89856118 totalHit 75419395 overflow 30961 evictTime 0
2040910621000: system.mem_ctrls: mytrace writeOverhead 417899640000 swap 1 write 7331272 396544
2040910621000: system.mem_ctrls: mytrace2 totalAccess 89916716 totalHit 75470453 overflow 30981 evictTime 0
2043565545000: system.mem_ctrls: mytrace writeOverhead 418466950000 swap 1 write 7341270 1010560
2043565545000: system.mem_ctrls: mytrace2 totalAccess 90037950 totalHit 75572563 overflow 31024 evictTime 0
2044895490000: system.mem_ctrls: mytrace writeOverhead 418753670000 swap 1 write 7346269 483520
2044895490000: system.mem_ctrls: mytrace2 totalAccess 90098406 totalHit 75623499 overflow 31049 evictTime 0
2048867580000: system.mem_ctrls: mytrace writeOverhead 419610420000 swap 1 write 7361264 1024448
2048867580000: system.mem_ctrls: mytrace2 totalAccess 90280127 totalHit 75776417 overflow 31119 evictTime 0
2050200309000: system.mem_ctrls: mytrace writeOverhead 419895740000 swap 1 write 7366257 446976
2050200309000: system.mem_ctrls: mytrace2 totalAccess 90340703 totalHit 75827337 overflow 31142 evictTime 0
2051523199000: system.mem_ctrls: mytrace writeOverhead 420180585000 swap 1 write 7371256 1010560
2051523199000: system.mem_ctrls: mytrace2 totalAccess 90401327 totalHit 75878289 overflow 31164 evictTime 0
2052851204000: system.mem_ctrls: mytrace writeOverhead 420462485000 swap 1 write 7376255 414208
2052851204000: system.mem_ctrls: mytrace2 totalAccess 90461980 totalHit 75929284 overflow 31183 evictTime 0
2055506817000: system.mem_ctrls: mytrace writeOverhead 421029835000 swap 1 write 7386253 1014336
2055506817000: system.mem_ctrls: mytrace2 totalAccess 90583194 totalHit 76031486 overflow 31227 evictTime 0
2056831973000: system.mem_ctrls: mytrace writeOverhead 421318535000 swap 1 write 7391252 1014400
2056831973000: system.mem_ctrls: mytrace2 totalAccess 90643768 totalHit 76082544 overflow 31254 evictTime 0
2060801558000: system.mem_ctrls: mytrace writeOverhead 422179270000 swap 1 write 7406251 1222016
2060801558000: system.mem_ctrls: mytrace2 totalAccess 90826008 totalHit 76235304 overflow 31323 evictTime 0
2062130896000: system.mem_ctrls: mytrace writeOverhead 422463855000 swap 1 write 7411250 1022016
2062130896000: system.mem_ctrls: mytrace2 totalAccess 90886671 totalHit 76286337 overflow 31345 evictTime 0
2064783501000: system.mem_ctrls: mytrace writeOverhead 423032705000 swap 1 write 7421249 473024
2064783501000: system.mem_ctrls: mytrace2 totalAccess 91007999 totalHit 76388585 overflow 31390 evictTime 0
2066117520000: system.mem_ctrls: mytrace writeOverhead 423317020000 swap 1 write 7426248 1013696
2066117520000: system.mem_ctrls: mytrace2 totalAccess 91068538 totalHit 76439534 overflow 31412 evictTime 0
2067443292000: system.mem_ctrls: mytrace writeOverhead 423598340000 swap 1 write 7431247 397632
2067443292000: system.mem_ctrls: mytrace2 totalAccess 91129215 totalHit 76490617 overflow 31431 evictTime 0
2068767133000: system.mem_ctrls: mytrace writeOverhead 423886970000 swap 1 write 7436246 1073664
2068767133000: system.mem_ctrls: mytrace2 totalAccess 91189663 totalHit 76541544 overflow 31458 evictTime 0
2071413994000: system.mem_ctrls: mytrace writeOverhead 424456755000 swap 1 write 7446245 479808
2071413994000: system.mem_ctrls: mytrace2 totalAccess 91310867 totalHit 76643668 overflow 31504 evictTime 0
2072739019000: system.mem_ctrls: mytrace writeOverhead 424741545000 swap 1 write 7451241 1073664
2072739019000: system.mem_ctrls: mytrace2 totalAccess 91371442 totalHit 76694557 overflow 31526 evictTime 0
2074067308000: system.mem_ctrls: mytrace writeOverhead 425026120000 swap 1 write 7456240 414144
2074067308000: system.mem_ctrls: mytrace2 totalAccess 91432024 totalHit 76745631 overflow 31549 evictTime 0
2075392212000: system.mem_ctrls: mytrace writeOverhead 425312850000 swap 1 write 7461234 397760
2075392212000: system.mem_ctrls: mytrace2 totalAccess 91492814 totalHit 76796712 overflow 31573 evictTime 0
2076723195000: system.mem_ctrls: mytrace writeOverhead 425597275000 swap 1 write 7466232 483456
2076723195000: system.mem_ctrls: mytrace2 totalAccess 91553463 totalHit 76847574 overflow 31594 evictTime 0
2078053269000: system.mem_ctrls: mytrace writeOverhead 425881615000 swap 1 write 7471231 446912
2078053269000: system.mem_ctrls: mytrace2 totalAccess 91614040 totalHit 76898541 overflow 31616 evictTime 0
2079376835000: system.mem_ctrls: mytrace writeOverhead 426163480000 swap 1 write 7476230 1073600
2079376835000: system.mem_ctrls: mytrace2 totalAccess 91674577 totalHit 76949556 overflow 31636 evictTime 0
2080704663000: system.mem_ctrls: mytrace writeOverhead 426451665000 swap 1 write 7481229 844096
2080704663000: system.mem_ctrls: mytrace2 totalAccess 91735097 totalHit 77000620 overflow 31663 evictTime 0
2083349906000: system.mem_ctrls: mytrace writeOverhead 427021435000 swap 1 write 7491228 397632
2083349906000: system.mem_ctrls: mytrace2 totalAccess 91856248 totalHit 77102701 overflow 31709 evictTime 0
2084675945000: system.mem_ctrls: mytrace writeOverhead 427305070000 swap 1 write 7496227 404352
2084675945000: system.mem_ctrls: mytrace2 totalAccess 91916940 totalHit 77153761 overflow 31730 evictTime 0
2086003207000: system.mem_ctrls: mytrace writeOverhead 427589230000 swap 1 write 7501226 496000
2086003207000: system.mem_ctrls: mytrace2 totalAccess 91977449 totalHit 77204700 overflow 31752 evictTime 0
2087324972000: system.mem_ctrls: mytrace writeOverhead 427874870000 swap 1 write 7506225 479808
2087324972000: system.mem_ctrls: mytrace2 totalAccess 92038038 totalHit 77255783 overflow 31776 evictTime 0
2088656161000: system.mem_ctrls: mytrace writeOverhead 428159635000 swap 1 write 7511224 502592
2088656161000: system.mem_ctrls: mytrace2 totalAccess 92098707 totalHit 77306786 overflow 31798 evictTime 0
2089988318000: system.mem_ctrls: mytrace writeOverhead 428445185000 swap 1 write 7516223 1013696
2089988318000: system.mem_ctrls: mytrace2 totalAccess 92159472 totalHit 77357829 overflow 31821 evictTime 0
2091314654000: system.mem_ctrls: mytrace writeOverhead 428728065000 swap 1 write 7521222 1073536
2091314654000: system.mem_ctrls: mytrace2 totalAccess 92220082 totalHit 77408771 overflow 31841 evictTime 0
2095293313000: system.mem_ctrls: mytrace writeOverhead 429589040000 swap 1 write 7536221 1073600
2095293313000: system.mem_ctrls: mytrace2 totalAccess 92402095 totalHit 77561822 overflow 31914 evictTime 0
2096617958000: system.mem_ctrls: mytrace writeOverhead 429872825000 swap 1 write 7541220 844096
2096617958000: system.mem_ctrls: mytrace2 totalAccess 92462691 totalHit 77612914 overflow 31936 evictTime 0
2097946885000: system.mem_ctrls: mytrace writeOverhead 430156605000 swap 1 write 7546219 481664
2097946885000: system.mem_ctrls: mytrace2 totalAccess 92523308 totalHit 77663881 overflow 31957 evictTime 0
2099273171000: system.mem_ctrls: mytrace writeOverhead 430442490000 swap 1 write 7551215 1073600
2099273171000: system.mem_ctrls: mytrace2 totalAccess 92583940 totalHit 77714793 overflow 31980 evictTime 0
2103262087000: system.mem_ctrls: mytrace writeOverhead 431296270000 swap 1 write 7566206 1073344
2103262087000: system.mem_ctrls: mytrace2 totalAccess 92765769 totalHit 77867668 overflow 32046 evictTime 0
2105925448000: system.mem_ctrls: mytrace writeOverhead 431865535000 swap 1 write 7576205 398208
2105925448000: system.mem_ctrls: mytrace2 totalAccess 92886940 totalHit 77969817 overflow 32092 evictTime 0
2107245846000: system.mem_ctrls: mytrace writeOverhead 432154290000 swap 1 write 7581204 479616
2107245846000: system.mem_ctrls: mytrace2 totalAccess 92947663 totalHit 78020862 overflow 32118 evictTime 0
2108569305000: system.mem_ctrls: mytrace writeOverhead 432438075000 swap 1 write 7586203 1073664
2108569305000: system.mem_ctrls: mytrace2 totalAccess 93008238 totalHit 78071919 overflow 32140 evictTime 0
2109896581000: system.mem_ctrls: mytrace writeOverhead 432721925000 swap 1 write 7591202 414144
2109896581000: system.mem_ctrls: mytrace2 totalAccess 93068839 totalHit 78122998 overflow 32162 evictTime 0
2111219314000: system.mem_ctrls: mytrace writeOverhead 433006410000 swap 1 write 7596201 1014400
2111219314000: system.mem_ctrls: mytrace2 totalAccess 93129459 totalHit 78173994 overflow 32184 evictTime 0
2112545368000: system.mem_ctrls: mytrace writeOverhead 433292455000 swap 1 write 7601200 1014400
2112545368000: system.mem_ctrls: mytrace2 totalAccess 93190082 totalHit 78224915 overflow 32207 evictTime 0
2113875352000: system.mem_ctrls: mytrace writeOverhead 433574935000 swap 1 write 7606199 1013888
2113875352000: system.mem_ctrls: mytrace2 totalAccess 93250540 totalHit 78275905 overflow 32228 evictTime 0
2115200167000: system.mem_ctrls: mytrace writeOverhead 433859150000 swap 1 write 7611198 446976
2115200167000: system.mem_ctrls: mytrace2 totalAccess 93311205 totalHit 78327128 overflow 32251 evictTime 0
2117863834000: system.mem_ctrls: mytrace writeOverhead 434430420000 swap 1 write 7621197 377344
2117863834000: system.mem_ctrls: mytrace2 totalAccess 93432290 totalHit 78429059 overflow 32298 evictTime 0
2119188825000: system.mem_ctrls: mytrace writeOverhead 434717410000 swap 1 write 7626196 1010496
2119188825000: system.mem_ctrls: mytrace2 totalAccess 93492984 totalHit 78480037 overflow 32322 evictTime 0
2123162407000: system.mem_ctrls: mytrace writeOverhead 435572460000 swap 1 write 7641191 1014400
2123162407000: system.mem_ctrls: mytrace2 totalAccess 93675296 totalHit 78633244 overflow 32388 evictTime 0
2125822834000: system.mem_ctrls: mytrace writeOverhead 436143515000 swap 1 write 7651186 414208
2125822834000: system.mem_ctrls: mytrace2 totalAccess 93796457 totalHit 78734955 overflow 32433 evictTime 0
2127149466000: system.mem_ctrls: mytrace writeOverhead 436428845000 swap 1 write 7656179 479616
2127149466000: system.mem_ctrls: mytrace2 totalAccess 93857134 totalHit 78785822 overflow 32455 evictTime 0
2128480368000: system.mem_ctrls: mytrace writeOverhead 436713680000 swap 1 write 7661178 1221696
2128480368000: system.mem_ctrls: mytrace2 totalAccess 93917950 totalHit 78836798 overflow 32476 evictTime 0
2129812869000: system.mem_ctrls: mytrace writeOverhead 437002730000 swap 1 write 7666177 1221696
2129812869000: system.mem_ctrls: mytrace2 totalAccess 93978515 totalHit 78887617 overflow 32502 evictTime 0
2131134380000: system.mem_ctrls: mytrace writeOverhead 437287390000 swap 1 write 7671176 502720
2131134380000: system.mem_ctrls: mytrace2 totalAccess 94038972 totalHit 78938408 overflow 32524 evictTime 0
2132457284000: system.mem_ctrls: mytrace writeOverhead 437572710000 swap 1 write 7676175 1221696
2132457284000: system.mem_ctrls: mytrace2 totalAccess 94099557 totalHit 78989215 overflow 32546 evictTime 0
2133791005000: system.mem_ctrls: mytrace writeOverhead 437859255000 swap 1 write 7681174 496128
2133791005000: system.mem_ctrls: mytrace2 totalAccess 94160127 totalHit 79039981 overflow 32569 evictTime 0
2135120317000: system.mem_ctrls: mytrace writeOverhead 438146735000 swap 1 write 7686172 502720
2135120317000: system.mem_ctrls: mytrace2 totalAccess 94220757 totalHit 79090806 overflow 32593 evictTime 0
2137771732000: system.mem_ctrls: mytrace writeOverhead 438724220000 swap 1 write 7696142 406784
2137771732000: system.mem_ctrls: mytrace2 totalAccess 94342904 totalHit 79192160 overflow 32637 evictTime 0
2139104994000: system.mem_ctrls: mytrace writeOverhead 439011520000 swap 1 write 7701125 844224
2139104994000: system.mem_ctrls: mytrace2 totalAccess 94404190 totalHit 79243082 overflow 32658 evictTime 0
2140437851000: system.mem_ctrls: mytrace writeOverhead 439300490000 swap 1 write 7706110 414208
2140437851000: system.mem_ctrls: mytrace2 totalAccess 94465277 totalHit 79293719 overflow 32680 evictTime 0
2141768120000: system.mem_ctrls: mytrace writeOverhead 439590430000 swap 1 write 7711106 1025088
2141768120000: system.mem_ctrls: mytrace2 totalAccess 94525800 totalHit 79344331 overflow 32706 evictTime 0
2143102234000: system.mem_ctrls: mytrace writeOverhead 439874985000 swap 1 write 7716105 502656
2143102234000: system.mem_ctrls: mytrace2 totalAccess 94586543 totalHit 79395276 overflow 32727 evictTime 0
2144428968000: system.mem_ctrls: mytrace writeOverhead 440160850000 swap 1 write 7721104 414144
2144428968000: system.mem_ctrls: mytrace2 totalAccess 94647201 totalHit 79446210 overflow 32750 evictTime 0
2145761174000: system.mem_ctrls: mytrace writeOverhead 440445425000 swap 1 write 7726103 398208
2145761174000: system.mem_ctrls: mytrace2 totalAccess 94707516 totalHit 79496871 overflow 32772 evictTime 0
2147085606000: system.mem_ctrls: mytrace writeOverhead 440731750000 swap 1 write 7731102 479616
2147085606000: system.mem_ctrls: mytrace2 totalAccess 94768108 totalHit 79547679 overflow 32795 evictTime 0
2149752899000: system.mem_ctrls: mytrace writeOverhead 441303980000 swap 1 write 7741099 483776
2149752899000: system.mem_ctrls: mytrace2 totalAccess 94889209 totalHit 79649274 overflow 32841 evictTime 0
2151080149000: system.mem_ctrls: mytrace writeOverhead 441586440000 swap 1 write 7746097 1012224
2151080149000: system.mem_ctrls: mytrace2 totalAccess 94949871 totalHit 79700316 overflow 32861 evictTime 0
2152405256000: system.mem_ctrls: mytrace writeOverhead 441872080000 swap 1 write 7751089 450624
2152405256000: system.mem_ctrls: mytrace2 totalAccess 95010464 totalHit 79751201 overflow 32884 evictTime 0
2153738038000: system.mem_ctrls: mytrace writeOverhead 442160450000 swap 1 write 7756088 844224
2153738038000: system.mem_ctrls: mytrace2 totalAccess 95071023 totalHit 79802042 overflow 32910 evictTime 0
2155072379000: system.mem_ctrls: mytrace writeOverhead 442446600000 swap 1 write 7761082 496000
2155072379000: system.mem_ctrls: mytrace2 totalAccess 95131785 totalHit 79852728 overflow 32931 evictTime 0
2156395615000: system.mem_ctrls: mytrace writeOverhead 442737745000 swap 1 write 7766060 414144
2156395615000: system.mem_ctrls: mytrace2 totalAccess 95193005 totalHit 79903276 overflow 32954 evictTime 0
2161665129000: system.mem_ctrls: mytrace writeOverhead 443910500000 swap 1 write 7785935 350976
2161665129000: system.mem_ctrls: mytrace2 totalAccess 95439016 totalHit 80104396 overflow 33043 evictTime 0
2162992187000: system.mem_ctrls: mytrace writeOverhead 444201960000 swap 1 write 7790913 483392
2162992187000: system.mem_ctrls: mytrace2 totalAccess 95500430 totalHit 80155051 overflow 33067 evictTime 0
2164317211000: system.mem_ctrls: mytrace writeOverhead 444486265000 swap 1 write 7795912 1221696
2164317211000: system.mem_ctrls: mytrace2 totalAccess 95561024 totalHit 80206025 overflow 33089 evictTime 0
2165640299000: system.mem_ctrls: mytrace writeOverhead 444772990000 swap 1 write 7800911 1221696
2165640299000: system.mem_ctrls: mytrace2 totalAccess 95621550 totalHit 80256867 overflow 33113 evictTime 0
2166967335000: system.mem_ctrls: mytrace writeOverhead 445057720000 swap 1 write 7805910 508416
2166967335000: system.mem_ctrls: mytrace2 totalAccess 95682133 totalHit 80307620 overflow 33134 evictTime 0
2168291475000: system.mem_ctrls: mytrace writeOverhead 445344555000 swap 1 write 7810909 399744
2168291475000: system.mem_ctrls: mytrace2 totalAccess 95742710 totalHit 80358483 overflow 33158 evictTime 0
2169615360000: system.mem_ctrls: mytrace writeOverhead 445627610000 swap 1 write 7815908 1221696
2169615360000: system.mem_ctrls: mytrace2 totalAccess 95803274 totalHit 80409327 overflow 33178 evictTime 0
2170935696000: system.mem_ctrls: mytrace writeOverhead 445916360000 swap 1 write 7820907 502720
2170935696000: system.mem_ctrls: mytrace2 totalAccess 95863906 totalHit 80460255 overflow 33204 evictTime 0
2173588520000: system.mem_ctrls: mytrace writeOverhead 446488045000 swap 1 write 7830906 1012992
2173588520000: system.mem_ctrls: mytrace2 totalAccess 95985293 totalHit 80562108 overflow 33249 evictTime 0
2174909311000: system.mem_ctrls: mytrace writeOverhead 446774025000 swap 1 write 7835904 479680
2174909311000: system.mem_ctrls: mytrace2 totalAccess 96045838 totalHit 80612923 overflow 33272 evictTime 0
2176239999000: system.mem_ctrls: mytrace writeOverhead 447055550000 swap 1 write 7840900 473024
2176239999000: system.mem_ctrls: mytrace2 totalAccess 96106457 totalHit 80663880 overflow 33291 evictTime 0
2177565909000: system.mem_ctrls: mytrace writeOverhead 447344810000 swap 1 write 7845898 414208
2177565909000: system.mem_ctrls: mytrace2 totalAccess 96167089 totalHit 80714816 overflow 33318 evictTime 0
2178881338000: system.mem_ctrls: mytrace writeOverhead 447628475000 swap 1 write 7850892 1012224
2178881338000: system.mem_ctrls: mytrace2 totalAccess 96227667 totalHit 80765574 overflow 33338 evictTime 0
2186821847000: system.mem_ctrls: mytrace writeOverhead 449342990000 swap 1 write 7880891 1024832
2186821847000: system.mem_ctrls: mytrace2 totalAccess 96590916 totalHit 81071125 overflow 33478 evictTime 0
2188139848000: system.mem_ctrls: mytrace writeOverhead 449623840000 swap 1 write 7885890 451392
2188139848000: system.mem_ctrls: mytrace2 totalAccess 96651601 totalHit 81122160 overflow 33496 evictTime 0
2196084050000: system.mem_ctrls: mytrace writeOverhead 451338705000 swap 1 write 7915889 1221696
2196084050000: system.mem_ctrls: mytrace2 totalAccess 97015993 totalHit 81428544 overflow 33634 evictTime 0
2197398124000: system.mem_ctrls: mytrace writeOverhead 451630070000 swap 1 write 7920877 414144
2197398124000: system.mem_ctrls: mytrace2 totalAccess 97076761 totalHit 81479112 overflow 33660 evictTime 0
2198710918000: system.mem_ctrls: mytrace writeOverhead 451918525000 swap 1 write 7925862 393728
2198710918000: system.mem_ctrls: mytrace2 totalAccess 97137996 totalHit 81529813 overflow 33681 evictTime 0
2201338905000: system.mem_ctrls: mytrace writeOverhead 452495185000 swap 1 write 7935830 417920
2201338905000: system.mem_ctrls: mytrace2 totalAccess 97260178 totalHit 81631215 overflow 33725 evictTime 0
2207937513000: system.mem_ctrls: mytrace writeOverhead 453937205000 swap 1 write 7960753 417984
2207937513000: system.mem_ctrls: mytrace2 totalAccess 97564848 totalHit 81884621 overflow 33839 evictTime 0
2219822287000: system.mem_ctrls: mytrace writeOverhead 456539600000 swap 1 write 8005683 406080
2219822287000: system.mem_ctrls: mytrace2 totalAccess 98114108 totalHit 82341489 overflow 34046 evictTime 0
2237006642000: system.mem_ctrls: mytrace writeOverhead 460254780000 swap 1 write 8070672 1024512
2237006642000: system.mem_ctrls: mytrace2 totalAccess 98902575 totalHit 83003220 overflow 34338 evictTime 0
2238342369000: system.mem_ctrls: mytrace writeOverhead 460536710000 swap 1 write 8075671 1010624
2238342369000: system.mem_ctrls: mytrace2 totalAccess 98963003 totalHit 83053984 overflow 34357 evictTime 0
2248916100000: system.mem_ctrls: mytrace writeOverhead 462824295000 swap 1 write 8115670 508544
2248916100000: system.mem_ctrls: mytrace2 totalAccess 99447727 totalHit 83461124 overflow 34541 evictTime 0
2250243265000: system.mem_ctrls: mytrace writeOverhead 463108150000 swap 1 write 8120669 496256
2250243265000: system.mem_ctrls: mytrace2 totalAccess 99508342 totalHit 83512069 overflow 34562 evictTime 0
2313737172000: system.mem_ctrls: mytrace writeOverhead 476820315000 swap 1 write 8360639 412928
2313737172000: system.mem_ctrls: mytrace2 totalAccess 102416876 totalHit 85955491 overflow 35655 evictTime 0
2316381421000: system.mem_ctrls: mytrace writeOverhead 477391485000 swap 1 write 8370638 450816
2316381421000: system.mem_ctrls: mytrace2 totalAccess 102538230 totalHit 86057433 overflow 35700 evictTime 0
2317708156000: system.mem_ctrls: mytrace writeOverhead 477675630000 swap 1 write 8375637 1073984
2317708156000: system.mem_ctrls: mytrace2 totalAccess 102598856 totalHit 86108343 overflow 35721 evictTime 0
2319026377000: system.mem_ctrls: mytrace writeOverhead 477959565000 swap 1 write 8380636 450816
2319026377000: system.mem_ctrls: mytrace2 totalAccess 102659384 totalHit 86159191 overflow 35742 evictTime 0
2320355642000: system.mem_ctrls: mytrace writeOverhead 478247595000 swap 1 write 8385635 417984
2320355642000: system.mem_ctrls: mytrace2 totalAccess 102720156 totalHit 86210243 overflow 35767 evictTime 0
2321691157000: system.mem_ctrls: mytrace writeOverhead 478530805000 swap 1 write 8390634 1024256
2321691157000: system.mem_ctrls: mytrace2 totalAccess 102780862 totalHit 86261233 overflow 35787 evictTime 0
2323011717000: system.mem_ctrls: mytrace writeOverhead 478818935000 swap 1 write 8395633 1221696
2323011717000: system.mem_ctrls: mytrace2 totalAccess 102841637 totalHit 86312282 overflow 35812 evictTime 0
2324347877000: system.mem_ctrls: mytrace writeOverhead 479104970000 swap 1 write 8400632 1025088
2324347877000: system.mem_ctrls: mytrace2 totalAccess 102902331 totalHit 86363276 overflow 35835 evictTime 0
2325675782000: system.mem_ctrls: mytrace writeOverhead 479391330000 swap 1 write 8405631 1012224
2325675782000: system.mem_ctrls: mytrace2 totalAccess 102963112 totalHit 86414303 overflow 35858 evictTime 0
2333621910000: system.mem_ctrls: mytrace writeOverhead 481109875000 swap 1 write 8435588 1073664
2333621910000: system.mem_ctrls: mytrace2 totalAccess 103328415 totalHit 86719919 overflow 35991 evictTime 0
2334949925000: system.mem_ctrls: mytrace writeOverhead 481399270000 swap 1 write 8440587 1221696
2334949925000: system.mem_ctrls: mytrace2 totalAccess 103388957 totalHit 86770665 overflow 36017 evictTime 0
2336274489000: system.mem_ctrls: mytrace writeOverhead 481683610000 swap 1 write 8445586 502720
2336274489000: system.mem_ctrls: mytrace2 totalAccess 103449468 totalHit 86821410 overflow 36038 evictTime 0
2338937792000: system.mem_ctrls: mytrace writeOverhead 482256565000 swap 1 write 8455585 496128
2338937792000: system.mem_ctrls: mytrace2 totalAccess 103570770 totalHit 86923204 overflow 36085 evictTime 0
2340259081000: system.mem_ctrls: mytrace writeOverhead 482543265000 swap 1 write 8460584 481344
2340259081000: system.mem_ctrls: mytrace2 totalAccess 103631278 totalHit 86973888 overflow 36108 evictTime 0
2341583927000: system.mem_ctrls: mytrace writeOverhead 482828030000 swap 1 write 8465583 483712
2341583927000: system.mem_ctrls: mytrace2 totalAccess 103691828 totalHit 87024626 overflow 36129 evictTime 0
2342910416000: system.mem_ctrls: mytrace writeOverhead 483116980000 swap 1 write 8470582 446912
2342910416000: system.mem_ctrls: mytrace2 totalAccess 103752364 totalHit 87075434 overflow 36155 evictTime 0
2344229079000: system.mem_ctrls: mytrace writeOverhead 483400955000 swap 1 write 8475581 1073600
2344229079000: system.mem_ctrls: mytrace2 totalAccess 103812930 totalHit 87126284 overflow 36176 evictTime 0
2345557911000: system.mem_ctrls: mytrace writeOverhead 483686125000 swap 1 write 8480580 844032
2345557911000: system.mem_ctrls: mytrace2 totalAccess 103873408 totalHit 87176942 overflow 36198 evictTime 0
2348217186000: system.mem_ctrls: mytrace writeOverhead 484261730000 swap 1 write 8490570 844032
2348217186000: system.mem_ctrls: mytrace2 totalAccess 103995058 totalHit 87278540 overflow 36244 evictTime 0
2353511851000: system.mem_ctrls: mytrace writeOverhead 485430990000 swap 1 write 8510463 417984
2353511851000: system.mem_ctrls: mytrace2 totalAccess 104240757 totalHit 87480182 overflow 36335 evictTime 0
2378724198000: system.mem_ctrls: mytrace writeOverhead 490862020000 swap 1 write 8605451 406080
2378724198000: system.mem_ctrls: mytrace2 totalAccess 105392409 totalHit 88446928 overflow 36767 evictTime 0
2380042977000: system.mem_ctrls: mytrace writeOverhead 491147755000 swap 1 write 8610446 1221696
2380042977000: system.mem_ctrls: mytrace2 totalAccess 105453089 totalHit 88497904 overflow 36790 evictTime 0
2386671206000: system.mem_ctrls: mytrace writeOverhead 492574255000 swap 1 write 8635439 479872
2386671206000: system.mem_ctrls: mytrace2 totalAccess 105756607 totalHit 88752850 overflow 36901 evictTime 0
2389316903000: system.mem_ctrls: mytrace writeOverhead 493152945000 swap 1 write 8645416 843904
2389316903000: system.mem_ctrls: mytrace2 totalAccess 105878667 totalHit 88854100 overflow 36946 evictTime 0
2390641753000: system.mem_ctrls: mytrace writeOverhead 493446260000 swap 1 write 8650401 389760
2390641753000: system.mem_ctrls: mytrace2 totalAccess 105940076 totalHit 88904883 overflow 36972 evictTime 0
2391966984000: system.mem_ctrls: mytrace writeOverhead 493736055000 swap 1 write 8655386 1024384
2391966984000: system.mem_ctrls: mytrace2 totalAccess 106001135 totalHit 88955502 overflow 36995 evictTime 0
2399909946000: system.mem_ctrls: mytrace writeOverhead 495476235000 swap 1 write 8685301 483712
2399909946000: system.mem_ctrls: mytrace2 totalAccess 106368394 totalHit 89259119 overflow 37127 evictTime 0
2411829273000: system.mem_ctrls: mytrace writeOverhead 498076045000 swap 1 write 8730232 483520
2411829273000: system.mem_ctrls: mytrace2 totalAccess 106917006 totalHit 89715532 overflow 37333 evictTime 0
2427749436000: system.mem_ctrls: mytrace writeOverhead 501506930000 swap 1 write 8790231 508416
2427749436000: system.mem_ctrls: mytrace2 totalAccess 107645289 totalHit 90327177 overflow 37606 evictTime 0
2429073520000: system.mem_ctrls: mytrace writeOverhead 501793090000 swap 1 write 8795230 1025088
2429073520000: system.mem_ctrls: mytrace2 totalAccess 107706118 totalHit 90378276 overflow 37629 evictTime 0
2439687148000: system.mem_ctrls: mytrace writeOverhead 504078575000 swap 1 write 8835219 482048
2439687148000: system.mem_ctrls: mytrace2 totalAccess 108191355 totalHit 90785719 overflow 37810 evictTime 0
2441007242000: system.mem_ctrls: mytrace writeOverhead 504365165000 swap 1 write 8840218 447744
2441007242000: system.mem_ctrls: mytrace2 totalAccess 108252128 totalHit 90836690 overflow 37833 evictTime 0
2505996158000: system.mem_ctrls: mytrace writeOverhead 518360565000 swap 1 write 9085197 350976
2505996158000: system.mem_ctrls: mytrace2 totalAccess 111224877 totalHit 93334434 overflow 38946 evictTime 0
2507314506000: system.mem_ctrls: mytrace writeOverhead 518644365000 swap 1 write 9090195 405888
2507314506000: system.mem_ctrls: mytrace2 totalAccess 111285620 totalHit 93385507 overflow 38967 evictTime 0
2508641962000: system.mem_ctrls: mytrace writeOverhead 518929140000 swap 1 write 9095191 1024320
2508641962000: system.mem_ctrls: mytrace2 totalAccess 111346299 totalHit 93436636 overflow 38990 evictTime 0
2509968102000: system.mem_ctrls: mytrace writeOverhead 519215610000 swap 1 write 9100187 447104
2509968102000: system.mem_ctrls: mytrace2 totalAccess 111406819 totalHit 93487500 overflow 39014 evictTime 0
2511292552000: system.mem_ctrls: mytrace writeOverhead 519498080000 swap 1 write 9105183 389824
2511292552000: system.mem_ctrls: mytrace2 totalAccess 111467496 totalHit 93538375 overflow 39033 evictTime 0
2512625254000: system.mem_ctrls: mytrace writeOverhead 519787015000 swap 1 write 9110182 502592
2512625254000: system.mem_ctrls: mytrace2 totalAccess 111528146 totalHit 93589301 overflow 39059 evictTime 0
2515275845000: system.mem_ctrls: mytrace writeOverhead 520357890000 swap 1 write 9120181 416512
2515275845000: system.mem_ctrls: mytrace2 totalAccess 111649061 totalHit 93690802 overflow 39104 evictTime 0
2516605359000: system.mem_ctrls: mytrace writeOverhead 520640350000 swap 1 write 9125180 446912
2516605359000: system.mem_ctrls: mytrace2 totalAccess 111709575 totalHit 93741544 overflow 39123 evictTime 0
2517933893000: system.mem_ctrls: mytrace writeOverhead 520930305000 swap 1 write 9130179 377408
2517933893000: system.mem_ctrls: mytrace2 totalAccess 111770016 totalHit 93792239 overflow 39150 evictTime 0
2519258753000: system.mem_ctrls: mytrace writeOverhead 521213740000 swap 1 write 9135178 406784
2519258753000: system.mem_ctrls: mytrace2 totalAccess 111830529 totalHit 93843126 overflow 39171 evictTime 0
2520586856000: system.mem_ctrls: mytrace writeOverhead 521501530000 swap 1 write 9140171 1024384
2520586856000: system.mem_ctrls: mytrace2 totalAccess 111891581 totalHit 93894138 overflow 39194 evictTime 0
2523238875000: system.mem_ctrls: mytrace writeOverhead 522076050000 swap 1 write 9150145 391040
2523238875000: system.mem_ctrls: mytrace2 totalAccess 112013490 totalHit 93995596 overflow 39237 evictTime 0
2524560446000: system.mem_ctrls: mytrace writeOverhead 522365520000 swap 1 write 9155144 479616
2524560446000: system.mem_ctrls: mytrace2 totalAccess 112074056 totalHit 94046350 overflow 39263 evictTime 0
2527218514000: system.mem_ctrls: mytrace writeOverhead 522935860000 swap 1 write 9165143 446848
2527218514000: system.mem_ctrls: mytrace2 totalAccess 112194975 totalHit 94147791 overflow 39307 evictTime 0
2528543722000: system.mem_ctrls: mytrace writeOverhead 523219145000 swap 1 write 9170142 1073408
2528543722000: system.mem_ctrls: mytrace2 totalAccess 112255648 totalHit 94198710 overflow 39327 evictTime 0
2529875059000: system.mem_ctrls: mytrace writeOverhead 523508240000 swap 1 write 9175141 393728
2529875059000: system.mem_ctrls: mytrace2 totalAccess 112316195 totalHit 94249491 overflow 39353 evictTime 0
2531204322000: system.mem_ctrls: mytrace writeOverhead 523793160000 swap 1 write 9180140 446912
2531204322000: system.mem_ctrls: mytrace2 totalAccess 112376790 totalHit 94300376 overflow 39375 evictTime 0
2532527032000: system.mem_ctrls: mytrace writeOverhead 524079325000 swap 1 write 9185139 481344
2532527032000: system.mem_ctrls: mytrace2 totalAccess 112437415 totalHit 94351238 overflow 39398 evictTime 0
2533853944000: system.mem_ctrls: mytrace writeOverhead 524366050000 swap 1 write 9190136 508480
2533853944000: system.mem_ctrls: mytrace2 totalAccess 112497949 totalHit 94402072 overflow 39422 evictTime 0
2535175351000: system.mem_ctrls: mytrace writeOverhead 524647920000 swap 1 write 9195133 1221696
2535175351000: system.mem_ctrls: mytrace2 totalAccess 112558643 totalHit 94453089 overflow 39441 evictTime 0
2536509193000: system.mem_ctrls: mytrace writeOverhead 524936600000 swap 1 write 9200126 844224
2536509193000: system.mem_ctrls: mytrace2 totalAccess 112619245 totalHit 94503951 overflow 39467 evictTime 0
2539161792000: system.mem_ctrls: mytrace writeOverhead 525508610000 swap 1 write 9210119 1024384
2539161792000: system.mem_ctrls: mytrace2 totalAccess 112740569 totalHit 94605539 overflow 39512 evictTime 0
2540489121000: system.mem_ctrls: mytrace writeOverhead 525795380000 swap 1 write 9215108 1221696
2540489121000: system.mem_ctrls: mytrace2 totalAccess 112801504 totalHit 94656116 overflow 39532 evictTime 0
2541816862000: system.mem_ctrls: mytrace writeOverhead 526086330000 swap 1 write 9220093 1012096
2541816862000: system.mem_ctrls: mytrace2 totalAccess 112862573 totalHit 94706735 overflow 39556 evictTime 0
2543130224000: system.mem_ctrls: mytrace writeOverhead 526380450000 swap 1 write 9225055 1012096
2543130224000: system.mem_ctrls: mytrace2 totalAccess 112924162 totalHit 94756800 overflow 39578 evictTime 0
2569676908000: system.mem_ctrls: mytrace writeOverhead 532105115000 swap 1 write 9324998 483520
2569676908000: system.mem_ctrls: mytrace2 totalAccess 114137694 totalHit 95773787 overflow 40032 evictTime 0
2571007768000: system.mem_ctrls: mytrace writeOverhead 532387480000 swap 1 write 9329997 410176
2571007768000: system.mem_ctrls: mytrace2 totalAccess 114198283 totalHit 95824782 overflow 40052 evictTime 0
2578967316000: system.mem_ctrls: mytrace writeOverhead 534098305000 swap 1 write 9359993 481664
2578967316000: system.mem_ctrls: mytrace2 totalAccess 114561976 totalHit 96130873 overflow 40189 evictTime 0
2580289323000: system.mem_ctrls: mytrace writeOverhead 534390530000 swap 1 write 9364978 496192
2580289323000: system.mem_ctrls: mytrace2 totalAccess 114623011 totalHit 96181252 overflow 40213 evictTime 0
2581615582000: system.mem_ctrls: mytrace writeOverhead 534681325000 swap 1 write 9369961 483712
2581615582000: system.mem_ctrls: mytrace2 totalAccess 114684255 totalHit 96231768 overflow 40235 evictTime 0
2582923742000: system.mem_ctrls: mytrace writeOverhead 534972275000 swap 1 write 9374932 1025408
2582923742000: system.mem_ctrls: mytrace2 totalAccess 114745551 totalHit 96282198 overflow 40257 evictTime 0
2590844833000: system.mem_ctrls: mytrace writeOverhead 536725045000 swap 1 write 9404755 446784
2590844833000: system.mem_ctrls: mytrace2 totalAccess 115114140 totalHit 96584746 overflow 40391 evictTime 0
2602758150000: system.mem_ctrls: mytrace writeOverhead 539361830000 swap 1 write 9449598 397824
2602758150000: system.mem_ctrls: mytrace2 totalAccess 115667315 totalHit 97039447 overflow 40597 evictTime 0
 *******OUTERBOUNDARY***********************
 #cells:          12
 R0:    1.0000000000000000E-004
 proftype:           4
 *******CFL*********************************
 CFL:  0.94999999999999996     
 *******NFTRANS_TD**************************
 Disttobound:          15
 Theta_angles_no:           4
 Theta_interval:   180.00000000000000        360.00000000000000     
 Phi_angles_no:           1
 Phi_interval:   0.0000000000000000        0.0000000000000000     
 Filenamebase: sphere_td
 *******PROGRESS****************************
 progress,iteration:   100.00000000000000     


 dt*c0 =    5.4848275573014449E-003
 Number of timesteps to propagate one (x)-cell:  1.82
 Ret. time arrays allocated in Huygens_mod, bytes used =      7041024
2604620489000: system.mem_ctrls: mytrace writeOverhead 539991475000 swap 2 write 9459533 3965632
2604620489000: system.mem_ctrls: mytrace2 totalAccess 115798463 totalHit 97138553 overflow 40620 evictTime 0
[...]
22403553428000: system.mem_ctrls: mytrace2 totalAccess 1456454342 totalHit 1056526983 overflow 49886 evictTime 0
22407189321000: system.mem_ctrls: mytrace writeOverhead 5405075500000 swap 2432500 write 76839372 480384
22407189321000: system.mem_ctrls: mytrace2 totalAccess 1456762147 totalHit 1056776083 overflow 49965 evictTime 0
22407919566000: system.mem_ctrls: mytrace writeOverhead 5405370805000 swap 2432500 write 76844366 1386944
22407919566000: system.mem_ctrls: mytrace2 totalAccess 1456823662 totalHit 1056825934 overflow 49983 evictTime 0
22408646848000: system.mem_ctrls: mytrace writeOverhead 5405665950000 swap 2432500 write 76849360 447040
22408646848000: system.mem_ctrls: mytrace2 totalAccess 1456885508 totalHit 1056875968 overflow 50000 evictTime 0
22411557708000: system.mem_ctrls: mytrace writeOverhead 5406848500000 swap 2432500 write 76869349 1221632
22411557708000: system.mem_ctrls: mytrace2 totalAccess 1457132413 totalHit 1057075692 overflow 50069 evictTime 0
22412285072000: system.mem_ctrls: mytrace writeOverhead 5407138105000 swap 2432500 write 76874343 1315520
22412285072000: system.mem_ctrls: mytrace2 totalAccess 1457194003 totalHit 1057125590 overflow 50081 evictTime 0
22414471578000: system.mem_ctrls: mytrace writeOverhead 5408025020000 swap 2432500 write 76889323 1316096
22414471578000: system.mem_ctrls: mytrace2 totalAccess 1457378595 totalHit 1057275272 overflow 50137 evictTime 0
22415195427000: system.mem_ctrls: mytrace writeOverhead 5408316885000 swap 2432500 write 76894321 1221952
22415195427000: system.mem_ctrls: mytrace2 totalAccess 1457440019 totalHit 1057325137 overflow 50152 evictTime 0
22416644824000: system.mem_ctrls: mytrace writeOverhead 5408894625000 swap 2432500 write 76904318 480704
22416644824000: system.mem_ctrls: mytrace2 totalAccess 1457562144 totalHit 1057425245 overflow 50183 evictTime 0
22417372387000: system.mem_ctrls: mytrace writeOverhead 5409184410000 swap 2432500 write 76909310 1344832
22417372387000: system.mem_ctrls: mytrace2 totalAccess 1457623394 totalHit 1057475213 overflow 50198 evictTime 0
22419547427000: system.mem_ctrls: mytrace writeOverhead 5410058415000 swap 2432500 write 76924303 430656
22419547427000: system.mem_ctrls: mytrace2 totalAccess 1457806638 totalHit 1057625217 overflow 50251 evictTime 0
22421723708000: system.mem_ctrls: mytrace writeOverhead 5410925325000 swap 2432500 write 76939301 441920
22421723708000: system.mem_ctrls: mytrace2 totalAccess 1457989509 totalHit 1057775190 overflow 50299 evictTime 0
22422444763000: system.mem_ctrls: mytrace writeOverhead 5411220305000 swap 2432500 write 76944300 995072
22422444763000: system.mem_ctrls: mytrace2 totalAccess 1458050618 totalHit 1057825311 overflow 50321 evictTime 0
22423895281000: system.mem_ctrls: mytrace writeOverhead 5411794650000 swap 2432500 write 76954293 988352
22423895281000: system.mem_ctrls: mytrace2 totalAccess 1458172926 totalHit 1057925409 overflow 50348 evictTime 0
22428967506000: system.mem_ctrls: mytrace writeOverhead 5413827255000 swap 2432500 write 76989283 1221696
22428967506000: system.mem_ctrls: mytrace2 totalAccess 1458600024 totalHit 1058275411 overflow 50467 evictTime 0
22431862245000: system.mem_ctrls: mytrace writeOverhead 5414989895000 swap 2432500 write 77009265 447104
22431862245000: system.mem_ctrls: mytrace2 totalAccess 1458844284 totalHit 1058475125 overflow 50534 evictTime 0
22433313902000: system.mem_ctrls: mytrace writeOverhead 5415575160000 swap 2432500 write 77019261 403392
22433313902000: system.mem_ctrls: mytrace2 totalAccess 1458966596 totalHit 1058575227 overflow 50572 evictTime 0
22434760724000: system.mem_ctrls: mytrace writeOverhead 5416153370000 swap 2432500 write 77029256 1221888
22434760724000: system.mem_ctrls: mytrace2 totalAccess 1459088724 totalHit 1058675383 overflow 50604 evictTime 0
22436213636000: system.mem_ctrls: mytrace writeOverhead 5416732635000 swap 2432500 write 77039245 424320
22436213636000: system.mem_ctrls: mytrace2 totalAccess 1459210785 totalHit 1058775117 overflow 50635 evictTime 0
22437663313000: system.mem_ctrls: mytrace writeOverhead 5417313465000 swap 2432500 write 77049244 427264
22437663313000: system.mem_ctrls: mytrace2 totalAccess 1459333149 totalHit 1058875466 overflow 50669 evictTime 0
22442737640000: system.mem_ctrls: mytrace writeOverhead 5419348945000 swap 2432500 write 77084228 395712
22442737640000: system.mem_ctrls: mytrace2 totalAccess 1459760893 totalHit 1059225712 overflow 50789 evictTime 0
22444186154000: system.mem_ctrls: mytrace writeOverhead 5419924345000 swap 2432500 write 77094226 1392064
22444186154000: system.mem_ctrls: mytrace2 totalAccess 1459882764 totalHit 1059325633 overflow 50818 evictTime 0
22444912010000: system.mem_ctrls: mytrace writeOverhead 5420213360000 swap 2432500 write 77099225 424384
22444912010000: system.mem_ctrls: mytrace2 totalAccess 1459943837 totalHit 1059375748 overflow 50834 evictTime 0
22447814722000: system.mem_ctrls: mytrace writeOverhead 5421372790000 swap 2432500 write 77119223 1386944
22447814722000: system.mem_ctrls: mytrace2 totalAccess 1460187937 totalHit 1059575997 overflow 50901 evictTime 0
22449270306000: system.mem_ctrls: mytrace writeOverhead 5421957685000 swap 2432500 write 77129210 1346176
22449270306000: system.mem_ctrls: mytrace2 totalAccess 1460310679 totalHit 1059676128 overflow 50936 evictTime 0
22449997079000: system.mem_ctrls: mytrace writeOverhead 5422252670000 swap 2432500 write 77134205 1348800
22449997079000: system.mem_ctrls: mytrace2 totalAccess 1460371912 totalHit 1059726191 overflow 50957 evictTime 0
22450725698000: system.mem_ctrls: mytrace writeOverhead 5422538960000 swap 2432500 write 77139204 1320000
22450725698000: system.mem_ctrls: mytrace2 totalAccess 1460433059 totalHit 1059776372 overflow 50970 evictTime 0
22452896089000: system.mem_ctrls: mytrace writeOverhead 5423410105000 swap 2432500 write 77154195 813760
22452896089000: system.mem_ctrls: mytrace2 totalAccess 1460616139 totalHit 1059926167 overflow 51020 evictTime 0
22454343242000: system.mem_ctrls: mytrace writeOverhead 5423994755000 swap 2432500 write 77164186 1320320
22454343242000: system.mem_ctrls: mytrace2 totalAccess 1460738332 totalHit 1060026087 overflow 51057 evictTime 0
22455068939000: system.mem_ctrls: mytrace writeOverhead 5424280225000 swap 2432500 write 77169184 988416
22455068939000: system.mem_ctrls: mytrace2 totalAccess 1460799365 totalHit 1060076106 overflow 51069 evictTime 0
22460140768000: system.mem_ctrls: mytrace writeOverhead 5426311405000 swap 2432500 write 77204178 1321408
22460140768000: system.mem_ctrls: mytrace2 totalAccess 1461226680 totalHit 1060426299 overflow 51187 evictTime 0
22460869374000: system.mem_ctrls: mytrace writeOverhead 5426606915000 swap 2432500 write 77209169 1325440
22460869374000: system.mem_ctrls: mytrace2 totalAccess 1461288220 totalHit 1060476422 overflow 51207 evictTime 0
22462320984000: system.mem_ctrls: mytrace writeOverhead 5427186315000 swap 2432500 write 77219166 995008
22462320984000: system.mem_ctrls: mytrace2 totalAccess 1461410316 totalHit 1060576551 overflow 51240 evictTime 0
22463048686000: system.mem_ctrls: mytrace writeOverhead 5427474135000 swap 2432500 write 77224165 425344
22463048686000: system.mem_ctrls: mytrace2 totalAccess 1461471273 totalHit 1060626596 overflow 51255 evictTime 0
22463768768000: system.mem_ctrls: mytrace writeOverhead 5427764630000 swap 2432500 write 77229164 988352
22463768768000: system.mem_ctrls: mytrace2 totalAccess 1461532194 totalHit 1060676491 overflow 51272 evictTime 0
22465937099000: system.mem_ctrls: mytrace writeOverhead 5428636225000 swap 2432500 write 77244161 407680
22465937099000: system.mem_ctrls: mytrace2 totalAccess 1461714910 totalHit 1060826268 overflow 51324 evictTime 0
22468843532000: system.mem_ctrls: mytrace writeOverhead 5429799870000 swap 2432500 write 77264143 395776
22468843532000: system.mem_ctrls: mytrace2 totalAccess 1461960044 totalHit 1061026679 overflow 51391 evictTime 0
22469519309000: system.mem_ctrls: mytrace writeOverhead 5430101330000 swap 2432500 write 77269136 1321536
22469519309000: system.mem_ctrls: mytrace2 totalAccess 1462023866 totalHit 1061077232 overflow 51405 evictTime 0
22470877179000: system.mem_ctrls: mytrace writeOverhead 5430703335000 swap 2432500 write 77279122 428928
22470877179000: system.mem_ctrls: mytrace2 totalAccess 1462151593 totalHit 1061178452 overflow 51432 evictTime 0
22471555727000: system.mem_ctrls: mytrace writeOverhead 5431009475000 swap 2432500 write 77284115 988416
22471555727000: system.mem_ctrls: mytrace2 totalAccess 1462215499 totalHit 1061229127 overflow 51451 evictTime 0
22472914247000: system.mem_ctrls: mytrace writeOverhead 5431610480000 swap 2432500 write 77294095 441920
22472914247000: system.mem_ctrls: mytrace2 totalAccess 1462343325 totalHit 1061330377 overflow 51477 evictTime 0
22474267702000: system.mem_ctrls: mytrace writeOverhead 5432220760000 swap 2432500 write 77304085 431424
22474267702000: system.mem_ctrls: mytrace2 totalAccess 1462471147 totalHit 1061431611 overflow 51512 evictTime 0
22474946213000: system.mem_ctrls: mytrace writeOverhead 5432523215000 swap 2432500 write 77309081 1392064
22474946213000: system.mem_ctrls: mytrace2 totalAccess 1462534925 totalHit 1061482210 overflow 51528 evictTime 0
22475624017000: system.mem_ctrls: mytrace writeOverhead 5432820110000 swap 2432500 write 77314078 1194496
22475624017000: system.mem_ctrls: mytrace2 totalAccess 1462599005 totalHit 1061533029 overflow 51537 evictTime 0
22476984895000: system.mem_ctrls: mytrace writeOverhead 5433431855000 swap 2432500 write 77324072 1387200
22476984895000: system.mem_ctrls: mytrace2 totalAccess 1462726992 totalHit 1061634401 overflow 51573 evictTime 0
22479025893000: system.mem_ctrls: mytrace writeOverhead 5434340145000 swap 2432500 write 77339048 430784
22479025893000: system.mem_ctrls: mytrace2 totalAccess 1462918689 totalHit 1061786356 overflow 51620 evictTime 0
22480383832000: system.mem_ctrls: mytrace writeOverhead 5434937770000 swap 2432500 write 77349030 1385536
22480383832000: system.mem_ctrls: mytrace2 totalAccess 1463046291 totalHit 1061887625 overflow 51644 evictTime 0
22483097367000: system.mem_ctrls: mytrace writeOverhead 5436149615000 swap 2432500 write 77369011 408000
22483097367000: system.mem_ctrls: mytrace2 totalAccess 1463301558 totalHit 1062090059 overflow 51707 evictTime 0
22483775712000: system.mem_ctrls: mytrace writeOverhead 5436452630000 swap 2432500 write 77374006 1339200
22483775712000: system.mem_ctrls: mytrace2 totalAccess 1463365449 totalHit 1062140764 overflow 51723 evictTime 0
22484455760000: system.mem_ctrls: mytrace writeOverhead 5436756695000 swap 2432500 write 77379001 479872
22484455760000: system.mem_ctrls: mytrace2 totalAccess 1463429421 totalHit 1062191398 overflow 51739 evictTime 0
22485816446000: system.mem_ctrls: mytrace writeOverhead 5437363725000 swap 2432500 write 77388983 1313792
22485816446000: system.mem_ctrls: mytrace2 totalAccess 1463557554 totalHit 1062292793 overflow 51770 evictTime 0
22486493706000: system.mem_ctrls: mytrace writeOverhead 5437664555000 swap 2432500 write 77393976 473472
22486493706000: system.mem_ctrls: mytrace2 totalAccess 1463621384 totalHit 1062343461 overflow 51784 evictTime 0
22487170998000: system.mem_ctrls: mytrace writeOverhead 5437967895000 swap 2432500 write 77398965 1244800
22487170998000: system.mem_ctrls: mytrace2 totalAccess 1463685163 totalHit 1062394020 overflow 51801 evictTime 0
22487851374000: system.mem_ctrls: mytrace writeOverhead 5438264615000 swap 2432500 write 77403957 1222016
22487851374000: system.mem_ctrls: mytrace2 totalAccess 1463748957 totalHit 1062444674 overflow 51811 evictTime 0
22488528626000: system.mem_ctrls: mytrace writeOverhead 5438570155000 swap 2432500 write 77408948 446976
22488528626000: system.mem_ctrls: mytrace2 totalAccess 1463812776 totalHit 1062495334 overflow 51830 evictTime 0
22489208144000: system.mem_ctrls: mytrace writeOverhead 5438871210000 swap 2432500 write 77413932 390272
22489208144000: system.mem_ctrls: mytrace2 totalAccess 1463876694 totalHit 1062545974 overflow 51844 evictTime 0
22490567183000: system.mem_ctrls: mytrace writeOverhead 5439477740000 swap 2432500 write 77423911 1325120
22490567183000: system.mem_ctrls: mytrace2 totalAccess 1464004445 totalHit 1062647321 overflow 51877 evictTime 0
22491251248000: system.mem_ctrls: mytrace writeOverhead 5439778195000 swap 2432500 write 77428905 1315456
22491251248000: system.mem_ctrls: mytrace2 totalAccess 1464068258 totalHit 1062698049 overflow 51891 evictTime 0
22491930752000: system.mem_ctrls: mytrace writeOverhead 5440079230000 swap 2432500 write 77433904 988416
22491930752000: system.mem_ctrls: mytrace2 totalAccess 1464132023 totalHit 1062748862 overflow 51906 evictTime 0
22493289264000: system.mem_ctrls: mytrace writeOverhead 5440680475000 swap 2432500 write 77443900 1339072
22493289264000: system.mem_ctrls: mytrace2 totalAccess 1464259371 totalHit 1062850358 overflow 51936 evictTime 0
22493968781000: system.mem_ctrls: mytrace writeOverhead 5440980970000 swap 2432500 write 77448896 428672
22493968781000: system.mem_ctrls: mytrace2 totalAccess 1464323093 totalHit 1062901074 overflow 51951 evictTime 0
22497365291000: system.mem_ctrls: mytrace writeOverhead 5442484220000 swap 2432500 write 77473882 988608
22497365291000: system.mem_ctrls: mytrace2 totalAccess 1464641681 totalHit 1063154573 overflow 52023 evictTime 0
22500761699000: system.mem_ctrls: mytrace writeOverhead 5443986465000 swap 2432500 write 77498879 1316032
22500761699000: system.mem_ctrls: mytrace2 totalAccess 1464959967 totalHit 1063408620 overflow 52100 evictTime 0
22504833998000: system.mem_ctrls: mytrace writeOverhead 5445786390000 swap 2432500 write 77528873 1319936
22504833998000: system.mem_ctrls: mytrace2 totalAccess 1465341902 totalHit 1063713456 overflow 52189 evictTime 0
22508232540000: system.mem_ctrls: mytrace writeOverhead 5447292120000 swap 2432500 write 77553868 404160
22508232540000: system.mem_ctrls: mytrace2 totalAccess 1465660232 totalHit 1063967495 overflow 52269 evictTime 0
22509588679000: system.mem_ctrls: mytrace writeOverhead 5447888490000 swap 2432500 write 77563863 424384
22509588679000: system.mem_ctrls: mytrace2 totalAccess 1465787814 totalHit 1064069205 overflow 52294 evictTime 0
22510264689000: system.mem_ctrls: mytrace writeOverhead 5448191835000 swap 2432500 write 77568860 1338112
22510264689000: system.mem_ctrls: mytrace2 totalAccess 1465851379 totalHit 1064119846 overflow 52312 evictTime 0
22510944661000: system.mem_ctrls: mytrace writeOverhead 5448496140000 swap 2432500 write 77573851 1320256
22510944661000: system.mem_ctrls: mytrace2 totalAccess 1465915193 totalHit 1064170532 overflow 52330 evictTime 0
22511624946000: system.mem_ctrls: mytrace writeOverhead 5448793175000 swap 2432500 write 77578846 1316096
22511624946000: system.mem_ctrls: mytrace2 totalAccess 1465978929 totalHit 1064221275 overflow 52341 evictTime 0
22512982904000: system.mem_ctrls: mytrace writeOverhead 5449398415000 swap 2432500 write 77588838 1340416
22512982904000: system.mem_ctrls: mytrace2 totalAccess 1466106191 totalHit 1064322683 overflow 52376 evictTime 0
22514343005000: system.mem_ctrls: mytrace writeOverhead 5449997790000 swap 2432500 write 77598835 1342912
22514343005000: system.mem_ctrls: mytrace2 totalAccess 1466233660 totalHit 1064424121 overflow 52403 evictTime 0
22515699203000: system.mem_ctrls: mytrace writeOverhead 5450603040000 swap 2432500 write 77608831 900480
22515699203000: system.mem_ctrls: mytrace2 totalAccess 1466361113 totalHit 1064525556 overflow 52436 evictTime 0
22516374685000: system.mem_ctrls: mytrace writeOverhead 5450904735000 swap 2432500 write 77613820 1342848
22516374685000: system.mem_ctrls: mytrace2 totalAccess 1466424941 totalHit 1064576060 overflow 52450 evictTime 0
22517055716000: system.mem_ctrls: mytrace writeOverhead 5451206360000 swap 2432500 write 77618818 406592
22517055716000: system.mem_ctrls: mytrace2 totalAccess 1466488603 totalHit 1064626798 overflow 52466 evictTime 0
22519775056000: system.mem_ctrls: mytrace writeOverhead 5452408135000 swap 2432500 write 77638813 988352
22519775056000: system.mem_ctrls: mytrace2 totalAccess 1466743320 totalHit 1064830068 overflow 52527 evictTime 0
22523848634000: system.mem_ctrls: mytrace writeOverhead 5454205345000 swap 2432500 write 77668808 479872
22523848634000: system.mem_ctrls: mytrace2 totalAccess 1467125244 totalHit 1065134860 overflow 52613 evictTime 0
22527244568000: system.mem_ctrls: mytrace writeOverhead 5455710840000 swap 2432500 write 77693804 1320000
22527244568000: system.mem_ctrls: mytrace2 totalAccess 1467443709 totalHit 1065389030 overflow 52693 evictTime 0
22531321130000: system.mem_ctrls: mytrace writeOverhead 5457509640000 swap 2432500 write 77723792 1194496
22531321130000: system.mem_ctrls: mytrace2 totalAccess 1467825983 totalHit 1065693859 overflow 52779 evictTime 0
22532684829000: system.mem_ctrls: mytrace writeOverhead 5458115560000 swap 2432500 write 77733785 1321472
22532684829000: system.mem_ctrls: mytrace2 totalAccess 1467953512 totalHit 1065795376 overflow 52813 evictTime 0
22536081346000: system.mem_ctrls: mytrace writeOverhead 5459617600000 swap 2432500 write 77758768 1346176
22536081346000: system.mem_ctrls: mytrace2 totalAccess 1468272301 totalHit 1066049149 overflow 52885 evictTime 0
22536759924000: system.mem_ctrls: mytrace writeOverhead 5459923360000 swap 2432500 write 77763766 1316160
22536759924000: system.mem_ctrls: mytrace2 totalAccess 1468336005 totalHit 1066099888 overflow 52905 evictTime 0
22538798981000: system.mem_ctrls: mytrace writeOverhead 5460829520000 swap 2432500 write 77778750 1221696
22538798981000: system.mem_ctrls: mytrace2 totalAccess 1468527353 totalHit 1066251847 overflow 52951 evictTime 0
22540152523000: system.mem_ctrls: mytrace writeOverhead 5461431070000 swap 2432500 write 77788747 447552
22540152523000: system.mem_ctrls: mytrace2 totalAccess 1468654701 totalHit 1066353310 overflow 52981 evictTime 0
22540831066000: system.mem_ctrls: mytrace writeOverhead 5461727610000 swap 2432500 write 77793746 1344
22540831066000: system.mem_ctrls: mytrace2 totalAccess 1468718326 totalHit 1066403914 overflow 52991 evictTime 0
22542868631000: system.mem_ctrls: mytrace writeOverhead 5462634065000 swap 2432500 write 77808744 473536
22542868631000: system.mem_ctrls: mytrace2 totalAccess 1468909554 totalHit 1066556320 overflow 53040 evictTime 0
22546273187000: system.mem_ctrls: mytrace writeOverhead 5464136135000 swap 2432500 write 77833739 430656
22546273187000: system.mem_ctrls: mytrace2 totalAccess 1469228334 totalHit 1066810731 overflow 53116 evictTime 0
22550346244000: system.mem_ctrls: mytrace writeOverhead 5465934425000 swap 2432500 write 77863735 406656
22550346244000: system.mem_ctrls: mytrace2 totalAccess 1469610273 totalHit 1067115610 overflow 53204 evictTime 0
22553061484000: system.mem_ctrls: mytrace writeOverhead 5467139370000 swap 2432500 write 77883727 900544
22553061484000: system.mem_ctrls: mytrace2 totalAccess 1469865097 totalHit 1067318772 overflow 53268 evictTime 0
22554423380000: system.mem_ctrls: mytrace writeOverhead 5467743265000 swap 2432500 write 77893719 1191616
22554423380000: system.mem_ctrls: mytrace2 totalAccess 1469992793 totalHit 1067420453 overflow 53300 evictTime 0
22555782703000: system.mem_ctrls: mytrace writeOverhead 5468343980000 swap 2432500 write 77903706 813504
22555782703000: system.mem_ctrls: mytrace2 totalAccess 1470120322 totalHit 1067521962 overflow 53329 evictTime 0
22556462614000: system.mem_ctrls: mytrace writeOverhead 5468642925000 swap 2432500 write 77908704 1341952
22556462614000: system.mem_ctrls: mytrace2 totalAccess 1470183890 totalHit 1067572706 overflow 53343 evictTime 0
 No. of Allocations (         150 )/(         150 ) deallocations.  Ok 
Exiting @ tick 22557140835000 because exiting with last active thread context
