gem5 Simulator System.  http://gem5.org
gem5 is copyrighted software; use the --copyright option for details.

gem5 compiled Apr 12 2020 11:33:10
gem5 started Apr 12 2020 11:34:25
gem5 executing on clive-desktop, pid 19527
command line: build/RISCV/gem5.opt --debug-flag=MYTRACE -r --stdout-file=simout configs/example/se.py -n 1 --caches --cpu-type=TimingSimpleCPU --mem-size=2GB --mem-channels=1 -c ./429.mcf/exe/mcf_base.amd64-m64-gcc41-nn -o ./429.mcf/data/train/input/inp.in

Global frequency set at 1000000000000 ticks per second
warn: DRAM device capacity (8192 Mbytes) does not match the address range assigned (2048 Mbytes)
0: system.remote_gdb: listening for remote gdb on port 7007
**** REAL SIMULATION ****
info: Entering event queue @ 0.  Starting simulation...
info: Increasing stack size by one page.

MCF SPEC CPU2006 version 1.10
Copyright (c) 1998-2000 Zuse Institut Berlin (ZIB)
Copyright (c) 2000-2002 Andreas Loebel & ZIB
Copyright (c) 2003-2005 Andreas Loebel

2368093000: system.mem_ctrls: mytrace writeOverhead 194135000 swap 1 write 4276 687488
2368093000: system.mem_ctrls: mytrace2 totalAccess 59003 totalHit 55245 overflow 0
9136899000: system.mem_ctrls: mytrace writeOverhead 847445000 swap 1 write 19063 5621248
9136899000: system.mem_ctrls: mytrace2 totalAccess 243034 totalHit 229360 overflow 0
13656894000: system.mem_ctrls: mytrace writeOverhead 1283360000 swap 1 write 28923 5916224
13656894000: system.mem_ctrls: mytrace2 totalAccess 365760 totalHit 345428 overflow 0
15918142000: system.mem_ctrls: mytrace writeOverhead 1500495000 swap 1 write 33837 1167808
15918142000: system.mem_ctrls: mytrace2 totalAccess 427030 totalHit 403403 overflow 0
20437431000: system.mem_ctrls: mytrace writeOverhead 1935625000 swap 1 write 43695 6391360
20437431000: system.mem_ctrls: mytrace2 totalAccess 549685 totalHit 519519 overflow 0
22690317000: system.mem_ctrls: mytrace writeOverhead 2153945000 swap 1 write 48628 2770112
22690317000: system.mem_ctrls: mytrace2 totalAccess 611073 totalHit 577535 overflow 0
40773889000: system.mem_ctrls: mytrace writeOverhead 3701050000 swap 1 write 83148 7633152
40773889000: system.mem_ctrls: mytrace2 totalAccess 1042283 totalHit 982164 overflow 0
62441666000: system.mem_ctrls: mytrace writeOverhead 4364890000 swap 1 write 92754 8013888
62441666000: system.mem_ctrls: mytrace2 totalAccess 1181766 totalHit 1078655 overflow 0
75147095000: system.mem_ctrls: mytrace writeOverhead 4649500000 swap 1 write 97547 8228416
75147095000: system.mem_ctrls: mytrace2 totalAccess 1247851 totalHit 1130443 overflow 0
86805610000: system.mem_ctrls: mytrace writeOverhead 4954555000 swap 1 write 102336 8452608
86805610000: system.mem_ctrls: mytrace2 totalAccess 1315435 totalHit 1180501 overflow 0
98128448000: system.mem_ctrls: mytrace writeOverhead 5274995000 swap 1 write 107140 8668864
98128448000: system.mem_ctrls: mytrace2 totalAccess 1384320 totalHit 1229650 overflow 0
169388532000: system.mem_ctrls: mytrace writeOverhead 7120165000 swap 1 write 135974 10033856
169388532000: system.mem_ctrls: mytrace2 totalAccess 1791714 totalHit 1530740 overflow 0
181461059000: system.mem_ctrls: mytrace writeOverhead 7420130000 swap 1 write 140775 1026240
181461059000: system.mem_ctrls: mytrace2 totalAccess 1859030 totalHit 1581429 overflow 0
193417112000: system.mem_ctrls: mytrace writeOverhead 7721805000 swap 1 write 145565 10496960
193417112000: system.mem_ctrls: mytrace2 totalAccess 1926321 totalHit 1631773 overflow 0
216504903000: system.mem_ctrls: mytrace writeOverhead 8353175000 swap 1 write 155166 10962560
216504903000: system.mem_ctrls: mytrace2 totalAccess 2063320 totalHit 1730659 overflow 0
227548481000: system.mem_ctrls: mytrace writeOverhead 8677315000 swap 1 write 159961 11208256
227548481000: system.mem_ctrls: mytrace2 totalAccess 2132560 totalHit 1779413 overflow 0
250374053000: system.mem_ctrls: mytrace writeOverhead 9308660000 swap 1 write 169568 11588352
250374053000: system.mem_ctrls: mytrace2 totalAccess 2269563 totalHit 1878461 overflow 1
261579497000: system.mem_ctrls: mytrace writeOverhead 9628320000 swap 1 write 174343 11839232
261579497000: system.mem_ctrls: mytrace2 totalAccess 2338408 totalHit 1927436 overflow 1
272580537000: system.mem_ctrls: mytrace writeOverhead 9953945000 swap 1 write 179151 2781120
272580537000: system.mem_ctrls: mytrace2 totalAccess 2407717 totalHit 1976170 overflow 1
283463584000: system.mem_ctrls: mytrace writeOverhead 10285020000 swap 1 write 183940 12253888
283463584000: system.mem_ctrls: mytrace2 totalAccess 2477414 totalHit 2024445 overflow 1
296340838000: system.mem_ctrls: mytrace writeOverhead 10572635000 swap 1 write 188767 12502336
296340838000: system.mem_ctrls: mytrace2 totalAccess 2543758 totalHit 2076327 overflow 1
319420453000: system.mem_ctrls: mytrace writeOverhead 11196025000 swap 1 write 198345 1377920
319420453000: system.mem_ctrls: mytrace2 totalAccess 2680156 totalHit 2175723 overflow 1
368979919000: system.mem_ctrls: mytrace writeOverhead 12384860000 swap 1 write 217592 13888768
368979919000: system.mem_ctrls: mytrace2 totalAccess 2948483 totalHit 2379798 overflow 1
380586491000: system.mem_ctrls: mytrace writeOverhead 12698080000 swap 1 write 222397 14114368
380586491000: system.mem_ctrls: mytrace2 totalAccess 3016789 totalHit 2429480 overflow 1
412228221000: system.mem_ctrls: mytrace writeOverhead 13703980000 swap 1 write 236765 1349952
412228221000: system.mem_ctrls: mytrace2 totalAccess 3227022 totalHit 2573250 overflow 1
423518881000: system.mem_ctrls: mytrace writeOverhead 14029400000 swap 1 write 241563 14935552
423518881000: system.mem_ctrls: mytrace2 totalAccess 3296276 totalHit 2622066 overflow 1
458184592000: system.mem_ctrls: mytrace writeOverhead 14973745000 swap 1 write 255956 15569280
458184592000: system.mem_ctrls: mytrace2 totalAccess 3501692 totalHit 2770831 overflow 2
481118066000: system.mem_ctrls: mytrace writeOverhead 15602140000 swap 1 write 265553 1067584
481118066000: system.mem_ctrls: mytrace2 totalAccess 3638537 totalHit 2870061 overflow 2
505208838000: system.mem_ctrls: mytrace writeOverhead 16203955000 swap 1 write 275153 2415232
505208838000: system.mem_ctrls: mytrace2 totalAccess 3773246 totalHit 2971317 overflow 2
563839797000: system.mem_ctrls: mytrace writeOverhead 17756350000 swap 2 write 299169 1902912
563839797000: system.mem_ctrls: mytrace2 totalAccess 4113925 totalHit 3221080 overflow 2
575141907000: system.mem_ctrls: mytrace writeOverhead 18078295000 swap 2 write 303979 17847488
575141907000: system.mem_ctrls: mytrace2 totalAccess 4182960 totalHit 3270171 overflow 2
586579839000: system.mem_ctrls: mytrace writeOverhead 18394370000 swap 2 write 308783 18034112
586579839000: system.mem_ctrls: mytrace2 totalAccess 4251546 totalHit 3319680 overflow 2
nodes                      : 13225
590566176000: system.mem_ctrls: mytrace writeOverhead 19785460000 swap 2 write 338651 5150464
590566176000: system.mem_ctrls: mytrace2 totalAccess 4626436 totalHit 3663663 overflow 2
604774085000: system.mem_ctrls: mytrace writeOverhead 28708440000 swap 2 write 543649 681856
604774085000: system.mem_ctrls: mytrace2 totalAccess 7144303 totalHit 6065499 overflow 2
active arcs                : 204416
612125251000: system.mem_ctrls: mytrace writeOverhead 32155690000 swap 2 write 620118 1550336
612125251000: system.mem_ctrls: mytrace2 totalAccess 8162389 totalHit 7019110 overflow 2
613154429000: system.mem_ctrls: mytrace writeOverhead 32416835000 swap 2 write 625649 2116992
613154429000: system.mem_ctrls: mytrace2 totalAccess 8267858 totalHit 7117879 overflow 2
615202645000: system.mem_ctrls: mytrace writeOverhead 32939745000 swap 2 write 636727 3269248
615202645000: system.mem_ctrls: mytrace2 totalAccess 8478857 totalHit 7315489 overflow 2
638588713000: system.mem_ctrls: mytrace writeOverhead 38158420000 swap 2 write 656140 1858240
638588713000: system.mem_ctrls: mytrace2 totalAccess 9910557 totalHit 7878325 overflow 10
639621102000: system.mem_ctrls: mytrace writeOverhead 38422300000 swap 2 write 661686 2415616
639621102000: system.mem_ctrls: mytrace2 totalAccess 10016262 totalHit 7976979 overflow 10
640136245000: system.mem_ctrls: mytrace writeOverhead 38552630000 swap 2 write 664445 2702400
640136245000: system.mem_ctrls: mytrace2 totalAccess 10068969 totalHit 8026333 overflow 10
640658721000: system.mem_ctrls: mytrace writeOverhead 38679780000 swap 2 write 667116 2991744
640658721000: system.mem_ctrls: mytrace2 totalAccess 10121362 totalHit 8075299 overflow 10
650137299000: system.mem_ctrls: mytrace writeOverhead 40806250000 swap 2 write 673590 686912
650137299000: system.mem_ctrls: mytrace2 totalAccess 10689648 totalHit 8278492 overflow 14
661641737000: system.mem_ctrls: mytrace writeOverhead 43310115000 swap 2 write 677391 445632
661641737000: system.mem_ctrls: mytrace2 totalAccess 11335167 totalHit 8462795 overflow 20
663148423000: system.mem_ctrls: mytrace writeOverhead 43651660000 swap 2 write 680957 982784
663148423000: system.mem_ctrls: mytrace2 totalAccess 11448589 totalHit 8537882 overflow 20
664169098000: system.mem_ctrls: mytrace writeOverhead 43911010000 swap 2 write 686447 1558016
664169098000: system.mem_ctrls: mytrace2 totalAccess 11553880 totalHit 8636500 overflow 20
666237502000: system.mem_ctrls: mytrace writeOverhead 44437995000 swap 2 write 697482 2665600
666237502000: system.mem_ctrls: mytrace2 totalAccess 11765185 totalHit 8833463 overflow 20
689610291000: system.mem_ctrls: mytrace writeOverhead 49650440000 swap 2 write 716849 1283968
689610291000: system.mem_ctrls: mytrace2 totalAccess 13196139 totalHit 9396747 overflow 30
690634503000: system.mem_ctrls: mytrace writeOverhead 49909390000 swap 2 write 722319 1868224
690634503000: system.mem_ctrls: mytrace2 totalAccess 13301380 totalHit 9495256 overflow 30
695317659000: system.mem_ctrls: mytrace writeOverhead 51054210000 swap 2 write 737798 445120
695317659000: system.mem_ctrls: mytrace2 totalAccess 13693089 totalHit 9787337 overflow 30
715607963000: system.mem_ctrls: mytrace writeOverhead 55535900000 swap 2 write 750207 1338048
715607963000: system.mem_ctrls: mytrace2 totalAccess 14892632 totalHit 10206065 overflow 38
718190329000: system.mem_ctrls: mytrace writeOverhead 56196340000 swap 2 write 763998 2692736
718190329000: system.mem_ctrls: mytrace2 totalAccess 15156901 totalHit 10452110 overflow 38
718710576000: system.mem_ctrls: mytrace writeOverhead 56324880000 swap 2 write 766701 2971904
718710576000: system.mem_ctrls: mytrace2 totalAccess 15209428 totalHit 10501199 overflow 38
740622529000: system.mem_ctrls: mytrace writeOverhead 61179565000 swap 2 write 777909 756160
740622529000: system.mem_ctrls: mytrace2 totalAccess 16485033 totalHit 10914333 overflow 52
741134752000: system.mem_ctrls: mytrace writeOverhead 61312800000 swap 2 write 780726 1049152
741134752000: system.mem_ctrls: mytrace2 totalAccess 16538008 totalHit 10963883 overflow 52
744753048000: system.mem_ctrls: mytrace writeOverhead 62236230000 swap 2 write 800036 2962752
744753048000: system.mem_ctrls: mytrace2 totalAccess 16907889 totalHit 11308463 overflow 52
745265807000: system.mem_ctrls: mytrace writeOverhead 62364485000 swap 2 write 802736 3236992
745265807000: system.mem_ctrls: mytrace2 totalAccess 16960390 totalHit 11357554 overflow 52
768857526000: system.mem_ctrls: mytrace writeOverhead 67607275000 swap 2 write 822027 1921152
768857526000: system.mem_ctrls: mytrace2 totalAccess 18394204 totalHit 11917069 overflow 61
770426701000: system.mem_ctrls: mytrace writeOverhead 68009125000 swap 2 write 830302 2672768
770426701000: system.mem_ctrls: mytrace2 totalAccess 18553226 totalHit 12064231 overflow 61
770937044000: system.mem_ctrls: mytrace writeOverhead 68140835000 swap 2 write 833056 2950592
770937044000: system.mem_ctrls: mytrace2 totalAccess 18606044 totalHit 12113436 overflow 61
793431316000: system.mem_ctrls: mytrace writeOverhead 73138145000 swap 2 write 847077 1037568
793431316000: system.mem_ctrls: mytrace2 totalAccess 19935407 totalHit 12574969 overflow 72
796022054000: system.mem_ctrls: mytrace writeOverhead 73806200000 swap 2 write 860916 2366080
796022054000: system.mem_ctrls: mytrace2 totalAccess 20200306 totalHit 12820762 overflow 72
797563242000: system.mem_ctrls: mytrace writeOverhead 74201250000 swap 2 write 869208 3206400
797563242000: system.mem_ctrls: mytrace2 totalAccess 20358773 totalHit 12968620 overflow 72
820582448000: system.mem_ctrls: mytrace writeOverhead 79362465000 swap 2 write 886351 1635264
820582448000: system.mem_ctrls: mytrace2 totalAccess 21744248 totalHit 13479284 overflow 80
823691798000: system.mem_ctrls: mytrace writeOverhead 80166280000 swap 2 write 902962 3188224
823691798000: system.mem_ctrls: mytrace2 totalAccess 22062318 totalHit 13774079 overflow 80
850726980000: system.mem_ctrls: mytrace writeOverhead 86334385000 swap 2 write 938863 461760
850726980000: system.mem_ctrls: mytrace2 totalAccess 23825020 totalHit 14617388 overflow 92
851867605000: system.mem_ctrls: mytrace writeOverhead 86591000000 swap 2 write 939307 446912
851867605000: system.mem_ctrls: mytrace2 totalAccess 23890116 totalHit 14635836 overflow 93
873205060000: system.mem_ctrls: mytrace writeOverhead 91355905000 swap 2 write 953631 1513600
873205060000: system.mem_ctrls: mytrace2 totalAccess 25156707 totalHit 15082550 overflow 103
875288845000: system.mem_ctrls: mytrace writeOverhead 91897775000 swap 2 write 964668 2534656
875288845000: system.mem_ctrls: mytrace2 totalAccess 25369195 totalHit 15278339 overflow 103
875807197000: system.mem_ctrls: mytrace writeOverhead 92025725000 swap 2 write 967362 2824960
875807197000: system.mem_ctrls: mytrace2 totalAccess 25421666 totalHit 15327410 overflow 103
876331804000: system.mem_ctrls: mytrace writeOverhead 92161505000 swap 2 write 970122 3060160
876331804000: system.mem_ctrls: mytrace2 totalAccess 25474821 totalHit 15376326 overflow 103
896591558000: system.mem_ctrls: mytrace writeOverhead 96671540000 swap 2 write 980148 5497920
896591558000: system.mem_ctrls: mytrace2 totalAccess 26636196 totalHit 15733876 overflow 113
901746287000: system.mem_ctrls: mytrace writeOverhead 97928015000 swap 2 write 998348 2483904
901746287000: system.mem_ctrls: mytrace2 totalAccess 27078385 totalHit 16077156 overflow 113
903294059000: system.mem_ctrls: mytrace writeOverhead 98329645000 swap 2 write 1006685 3291584
903294059000: system.mem_ctrls: mytrace2 totalAccess 27237421 totalHit 16224802 overflow 113
921615070000: system.mem_ctrls: mytrace writeOverhead 102404545000 swap 2 write 1014033 442624
921615070000: system.mem_ctrls: mytrace2 totalAccess 28276235 totalHit 16523673 overflow 122
929159963000: system.mem_ctrls: mytrace writeOverhead 104222275000 swap 2 write 1037655 2953664
929159963000: system.mem_ctrls: mytrace2 totalAccess 28892883 totalHit 16975824 overflow 126
951969642000: system.mem_ctrls: mytrace writeOverhead 109346370000 swap 2 write 1052301 982080
951969642000: system.mem_ctrls: mytrace2 totalAccess 30233668 totalHit 17430387 overflow 136
953505583000: system.mem_ctrls: mytrace writeOverhead 109744745000 swap 2 write 1060570 1921984
953505583000: system.mem_ctrls: mytrace2 totalAccess 30392323 totalHit 17577870 overflow 136
955095282000: system.mem_ctrls: mytrace writeOverhead 110158480000 swap 2 write 1068805 2577920
955095282000: system.mem_ctrls: mytrace2 totalAccess 30552269 totalHit 17723795 overflow 136
956730830000: system.mem_ctrls: mytrace writeOverhead 110590015000 swap 2 write 1076946 3339648
956730830000: system.mem_ctrls: mytrace2 totalAccess 30714024 totalHit 17867137 overflow 136
979060680000: system.mem_ctrls: mytrace writeOverhead 115553945000 swap 2 write 1089014 1180928
979060680000: system.mem_ctrls: mytrace2 totalAccess 31999432 totalHit 18276540 overflow 147
979578030000: system.mem_ctrls: mytrace writeOverhead 115687935000 swap 2 write 1091787 1494592
979578030000: system.mem_ctrls: mytrace2 totalAccess 32052419 totalHit 18325727 overflow 147
981686347000: system.mem_ctrls: mytrace writeOverhead 116238600000 swap 2 write 1102766 2465728
981686347000: system.mem_ctrls: mytrace2 totalAccess 32265560 totalHit 18520402 overflow 147
988899473000: system.mem_ctrls: mytrace writeOverhead 117920855000 swap 2 write 1114094 446656
988899473000: system.mem_ctrls: mytrace2 totalAccess 32749633 totalHit 18766515 overflow 150
996966237000: system.mem_ctrls: mytrace writeOverhead 119719940000 swap 2 write 1117345 441856
996966237000: system.mem_ctrls: mytrace2 totalAccess 33205823 totalHit 18895835 overflow 153
1003892006000: system.mem_ctrls: mytrace writeOverhead 121260260000 swap 2 write 1120076 461888
1003892006000: system.mem_ctrls: mytrace2 totalAccess 33596553 totalHit 19006497 overflow 156
1009773694000: system.mem_ctrls: mytrace writeOverhead 122740745000 swap 2 write 1145139 3168256
1009773694000: system.mem_ctrls: mytrace2 totalAccess 34139782 totalHit 19463680 overflow 157
1032868953000: system.mem_ctrls: mytrace writeOverhead 127923050000 swap 2 write 1159948 1236416
1032868953000: system.mem_ctrls: mytrace2 totalAccess 35486134 totalHit 19914080 overflow 167
1033900388000: system.mem_ctrls: mytrace writeOverhead 128193260000 swap 2 write 1165440 1881152
1033900388000: system.mem_ctrls: mytrace2 totalAccess 35592211 totalHit 20011929 overflow 167
1034441000000: system.mem_ctrls: mytrace writeOverhead 128333400000 swap 2 write 1168155 2074752
1034441000000: system.mem_ctrls: mytrace2 totalAccess 35645684 totalHit 20060167 overflow 167
1036028454000: system.mem_ctrls: mytrace writeOverhead 128748440000 swap 2 write 1176443 2791872
1036028454000: system.mem_ctrls: mytrace2 totalAccess 35805786 totalHit 20206353 overflow 167
1036560468000: system.mem_ctrls: mytrace writeOverhead 128890390000 swap 2 write 1179215 1644608
1036560468000: system.mem_ctrls: mytrace2 totalAccess 35859439 totalHit 20254860 overflow 167
1037070010000: system.mem_ctrls: mytrace writeOverhead 129024865000 swap 2 write 1181989 3285248
1037070010000: system.mem_ctrls: mytrace2 totalAccess 35912491 totalHit 20303989 overflow 167
1038107007000: system.mem_ctrls: mytrace writeOverhead 129274680000 swap 2 write 1183024 446016
1038107007000: system.mem_ctrls: mytrace2 totalAccess 35976749 totalHit 20327923 overflow 167
1059495335000: system.mem_ctrls: mytrace writeOverhead 134066850000 swap 2 write 1194115 1118528
1059495335000: system.mem_ctrls: mytrace2 totalAccess 37205267 totalHit 20706656 overflow 178
1060008932000: system.mem_ctrls: mytrace writeOverhead 134203370000 swap 2 write 1196923 1417792
1060008932000: system.mem_ctrls: mytrace2 totalAccess 37258468 totalHit 20755908 overflow 178
1062649917000: system.mem_ctrls: mytrace writeOverhead 134900080000 swap 2 write 1210715 2679552
1062649917000: system.mem_ctrls: mytrace2 totalAccess 37525585 totalHit 20999109 overflow 178
1073705288000: system.mem_ctrls: mytrace writeOverhead 137446005000 swap 2 write 1222397 441856
1073705288000: system.mem_ctrls: mytrace2 totalAccess 38213852 totalHit 21283503 overflow 182
1084137331000: system.mem_ctrls: mytrace writeOverhead 139771230000 swap 2 write 1226617 1274304
1084137331000: system.mem_ctrls: mytrace2 totalAccess 38801493 totalHit 21448793 overflow 186
1086141191000: system.mem_ctrls: mytrace writeOverhead 140225000000 swap 2 write 1228539 940480
1086141191000: system.mem_ctrls: mytrace2 totalAccess 38925626 totalHit 21499902 overflow 187
1087173928000: system.mem_ctrls: mytrace writeOverhead 140504315000 swap 2 write 1234079 1604800
1087173928000: system.mem_ctrls: mytrace2 totalAccess 39032414 totalHit 21597416 overflow 187
1095398643000: system.mem_ctrls: mytrace writeOverhead 142516045000 swap 2 write 1255790 1275520
1095398643000: system.mem_ctrls: mytrace2 totalAccess 39667274 totalHit 22015815 overflow 192
1107071841000: system.mem_ctrls: mytrace writeOverhead 145102770000 swap 2 write 1260549 444672
1107071841000: system.mem_ctrls: mytrace2 totalAccess 40320478 totalHit 22199930 overflow 197
1114015919000: system.mem_ctrls: mytrace writeOverhead 146684440000 swap 2 write 1268301 1398336
1114015919000: system.mem_ctrls: mytrace2 totalAccess 40754657 totalHit 22387327 overflow 198
1114530734000: system.mem_ctrls: mytrace writeOverhead 146825860000 swap 2 write 1271070 1816320
1114530734000: system.mem_ctrls: mytrace2 totalAccess 40808175 totalHit 22435950 overflow 198
1115066823000: system.mem_ctrls: mytrace writeOverhead 146961115000 swap 2 write 1273753 655360
1115066823000: system.mem_ctrls: mytrace2 totalAccess 40861219 totalHit 22484358 overflow 198
1115605013000: system.mem_ctrls: mytrace writeOverhead 147104030000 swap 2 write 1276466 811200
1115605013000: system.mem_ctrls: mytrace2 totalAccess 40914901 totalHit 22532366 overflow 198
1136929157000: system.mem_ctrls: mytrace writeOverhead 152011685000 swap 2 write 1297891 448320
1136929157000: system.mem_ctrls: mytrace2 totalAccess 42233638 totalHit 23063369 overflow 208
1142859681000: system.mem_ctrls: mytrace writeOverhead 153460340000 swap 2 write 1313739 2282496
1142859681000: system.mem_ctrls: mytrace2 totalAccess 42693598 totalHit 23369856 overflow 210
1162115491000: system.mem_ctrls: mytrace writeOverhead 157899255000 swap 2 write 1333355 442816
1162115491000: system.mem_ctrls: mytrace2 totalAccess 43886383 totalHit 23852532 overflow 219
1167988390000: system.mem_ctrls: mytrace writeOverhead 159255255000 swap 2 write 1340025 1364352
1167988390000: system.mem_ctrls: mytrace2 totalAccess 44258090 totalHit 24013607 overflow 224
1169042968000: system.mem_ctrls: mytrace writeOverhead 159534135000 swap 2 write 1345453 2018176
1169042968000: system.mem_ctrls: mytrace2 totalAccess 44364780 totalHit 24110328 overflow 224
1171178641000: system.mem_ctrls: mytrace writeOverhead 160107040000 swap 2 write 1356528 2873728
1171178641000: system.mem_ctrls: mytrace2 totalAccess 44579841 totalHit 24303850 overflow 224
1172276794000: system.mem_ctrls: mytrace writeOverhead 160411030000 swap 2 write 1362023 3336640
1172276794000: system.mem_ctrls: mytrace2 totalAccess 44689033 totalHit 24398604 overflow 224
1194732663000: system.mem_ctrls: mytrace writeOverhead 165481150000 swap 2 write 1374652 1175104
1194732663000: system.mem_ctrls: mytrace2 totalAccess 45984231 totalHit 24802719 overflow 233
1195769307000: system.mem_ctrls: mytrace writeOverhead 165766685000 swap 2 write 1380180 1909760
1195769307000: system.mem_ctrls: mytrace2 totalAccess 46091457 totalHit 24899703 overflow 233
1196847680000: system.mem_ctrls: mytrace writeOverhead 166053265000 swap 2 write 1385664 2249600
1196847680000: system.mem_ctrls: mytrace2 totalAccess 46198924 totalHit 24996094 overflow 233
1197392615000: system.mem_ctrls: mytrace writeOverhead 166194960000 swap 2 write 1388372 2481856
1197392615000: system.mem_ctrls: mytrace2 totalAccess 46252529 totalHit 25044142 overflow 233
1197926710000: system.mem_ctrls: mytrace writeOverhead 166336220000 swap 2 write 1391124 2722176
1197926710000: system.mem_ctrls: mytrace2 totalAccess 46306136 totalHit 25092543 overflow 233
1198988592000: system.mem_ctrls: mytrace writeOverhead 166622255000 swap 2 write 1396665 3155840
1198988592000: system.mem_ctrls: mytrace2 totalAccess 46413624 totalHit 25189366 overflow 233
1221692195000: system.mem_ctrls: mytrace writeOverhead 171745950000 swap 2 write 1409122 860864
1221692195000: system.mem_ctrls: mytrace2 totalAccess 47713558 totalHit 25586962 overflow 246
1222740916000: system.mem_ctrls: mytrace writeOverhead 172039120000 swap 2 write 1414628 1680704
1222740916000: system.mem_ctrls: mytrace2 totalAccess 47821320 totalHit 25683227 overflow 246
1223265330000: system.mem_ctrls: mytrace writeOverhead 172177055000 swap 2 write 1417387 1988992
1223265330000: system.mem_ctrls: mytrace2 totalAccess 47874585 totalHit 25732023 overflow 246
1226479420000: system.mem_ctrls: mytrace writeOverhead 173037290000 swap 2 write 1433876 3222912
1226479420000: system.mem_ctrls: mytrace2 totalAccess 48197066 totalHit 26021420 overflow 247
1243600021000: system.mem_ctrls: mytrace writeOverhead 176921650000 swap 2 write 1442962 445888
1243600021000: system.mem_ctrls: mytrace2 totalAccess 49176684 totalHit 26313057 overflow 252
1244753050000: system.mem_ctrls: mytrace writeOverhead 177184160000 swap 2 write 1443491 444864
1244753050000: system.mem_ctrls: mytrace2 totalAccess 49242107 totalHit 26331761 overflow 255
1251180357000: system.mem_ctrls: mytrace writeOverhead 178738280000 swap 2 write 1457572 807040
1251180357000: system.mem_ctrls: mytrace2 totalAccess 49712370 totalHit 26613833 overflow 256
1252793385000: system.mem_ctrls: mytrace writeOverhead 179172185000 swap 2 write 1465848 1492800
1252793385000: system.mem_ctrls: mytrace2 totalAccess 49873993 totalHit 26758402 overflow 256
1253331606000: system.mem_ctrls: mytrace writeOverhead 179316735000 swap 2 write 1468604 1692992
1253331606000: system.mem_ctrls: mytrace2 totalAccess 49927852 totalHit 26806577 overflow 256
1266496305000: system.mem_ctrls: mytrace writeOverhead 182327865000 swap 2 write 1477892 461760
1266496305000: system.mem_ctrls: mytrace2 totalAccess 50701538 totalHit 27065930 overflow 261
1271134124000: system.mem_ctrls: mytrace writeOverhead 183370820000 swap 2 write 1479970 445312
1271134124000: system.mem_ctrls: mytrace2 totalAccess 50963336 totalHit 27140395 overflow 265
1276423770000: system.mem_ctrls: mytrace writeOverhead 184587830000 swap 2 write 1484259 997312
1276423770000: system.mem_ctrls: mytrace2 totalAccess 51281714 totalHit 27255825 overflow 267
1276946250000: system.mem_ctrls: mytrace writeOverhead 184735485000 swap 2 write 1487008 1462016
1276946250000: system.mem_ctrls: mytrace2 totalAccess 51335661 totalHit 27303858 overflow 267
1285914119000: system.mem_ctrls: mytrace writeOverhead 186957730000 swap 2 write 1511195 448192
1285914119000: system.mem_ctrls: mytrace2 totalAccess 52030222 totalHit 27762259 overflow 271
1288241234000: system.mem_ctrls: mytrace writeOverhead 187477535000 swap 2 write 1512311 445312
1288241234000: system.mem_ctrls: mytrace2 totalAccess 52160980 totalHit 27800197 overflow 272
1298777181000: system.mem_ctrls: mytrace writeOverhead 189825970000 swap 2 write 1517289 447232
1298777181000: system.mem_ctrls: mytrace2 totalAccess 52750214 totalHit 27969658 overflow 277
1306167485000: system.mem_ctrls: mytrace writeOverhead 191620025000 swap 2 write 1532835 2251712
1306167485000: system.mem_ctrls: mytrace2 totalAccess 53283466 totalHit 28280165 overflow 278
1307786681000: system.mem_ctrls: mytrace writeOverhead 192053705000 swap 2 write 1541053 2927168
1307786681000: system.mem_ctrls: mytrace2 totalAccess 53445035 totalHit 28424317 overflow 278
1331496730000: system.mem_ctrls: mytrace writeOverhead 197478580000 swap 2 write 1559628 1188800
1331496730000: system.mem_ctrls: mytrace2 totalAccess 54853236 totalHit 28922147 overflow 290
1333092717000: system.mem_ctrls: mytrace writeOverhead 197917365000 swap 2 write 1567863 742720
1333092717000: system.mem_ctrls: mytrace2 totalAccess 55014914 totalHit 29066331 overflow 290
1335787051000: system.mem_ctrls: mytrace writeOverhead 198646135000 swap 2 write 1581653 3151680
1335787051000: system.mem_ctrls: mytrace2 totalAccess 55284714 totalHit 29306820 overflow 290
1360048218000: system.mem_ctrls: mytrace writeOverhead 204236605000 swap 2 write 1602909 629568
1360048218000: system.mem_ctrls: mytrace2 totalAccess 56748495 totalHit 29850972 overflow 303
1361128977000: system.mem_ctrls: mytrace writeOverhead 204530455000 swap 2 write 1608469 2338112
1361128977000: system.mem_ctrls: mytrace2 totalAccess 56856609 totalHit 29947325 overflow 303
1361668772000: system.mem_ctrls: mytrace writeOverhead 204675755000 swap 2 write 1611195 2544960
1361668772000: system.mem_ctrls: mytrace2 totalAccess 56910517 totalHit 29995213 overflow 303
1363282105000: system.mem_ctrls: mytrace writeOverhead 205114400000 swap 2 write 1619466 3179136
1363282105000: system.mem_ctrls: mytrace2 totalAccess 57072424 totalHit 30139456 overflow 304
1387608228000: system.mem_ctrls: mytrace writeOverhead 210717880000 swap 2 write 1640791 645504
1387608228000: system.mem_ctrls: mytrace2 totalAccess 58537623 totalHit 30682815 overflow 313
1389227209000: system.mem_ctrls: mytrace writeOverhead 211160085000 swap 2 write 1649112 1208960
1389227209000: system.mem_ctrls: mytrace2 totalAccess 58699916 totalHit 30827070 overflow 313
1389773894000: system.mem_ctrls: mytrace writeOverhead 211304270000 swap 2 write 1651824 2777088
1389773894000: system.mem_ctrls: mytrace2 totalAccess 58753727 totalHit 30874943 overflow 313
1416878252000: system.mem_ctrls: mytrace writeOverhead 217656760000 swap 2 write 1686981 1208448
1416878252000: system.mem_ctrls: mytrace2 totalAccess 60490057 totalHit 31657274 overflow 324
1426206119000: system.mem_ctrls: mytrace writeOverhead 219879005000 swap 2 write 1700928 446016
1426206119000: system.mem_ctrls: mytrace2 totalAccess 61105725 totalHit 31952407 overflow 328
1432006412000: system.mem_ctrls: mytrace writeOverhead 221186785000 swap 2 write 1703769 448704
1432006412000: system.mem_ctrls: mytrace2 totalAccess 61433418 totalHit 32046890 overflow 331
1441685547000: system.mem_ctrls: mytrace writeOverhead 223412965000 swap 2 write 1711381 1308928
1441685547000: system.mem_ctrls: mytrace2 totalAccess 62009949 totalHit 32250478 overflow 334
1442747675000: system.mem_ctrls: mytrace writeOverhead 223711150000 swap 2 write 1716853 2037760
1442747675000: system.mem_ctrls: mytrace2 totalAccess 62118117 totalHit 32346068 overflow 334
1444372697000: system.mem_ctrls: mytrace writeOverhead 224152795000 swap 2 write 1725139 1225408
1444372697000: system.mem_ctrls: mytrace2 totalAccess 62280330 totalHit 32490117 overflow 334
1465281928000: system.mem_ctrls: mytrace writeOverhead 228994020000 swap 2 write 1744888 447168
1465281928000: system.mem_ctrls: mytrace2 totalAccess 63551545 totalHit 32974797 overflow 344
1466414567000: system.mem_ctrls: mytrace writeOverhead 229256155000 swap 2 write 1745532 461696
1466414567000: system.mem_ctrls: mytrace2 totalAccess 63617143 totalHit 32994215 overflow 344
1501332566000: system.mem_ctrls: mytrace writeOverhead 237652450000 swap 2 write 1809343 3149184
1501332566000: system.mem_ctrls: mytrace2 totalAccess 66028299 totalHit 34290581 overflow 359
1511265264000: system.mem_ctrls: mytrace writeOverhead 239935205000 swap 2 write 1816574 445696
1511265264000: system.mem_ctrls: mytrace2 totalAccess 66610759 totalHit 34484956 overflow 362
1554410621000: system.mem_ctrls: mytrace writeOverhead 250128425000 swap 2 write 1874818 983936
1554410621000: system.mem_ctrls: mytrace2 totalAccess 69398177 totalHit 35759301 overflow 381
1565161850000: system.mem_ctrls: mytrace writeOverhead 252732540000 swap 2 write 1893283 461696
1565161850000: system.mem_ctrls: mytrace2 totalAccess 70130433 totalHit 36133807 overflow 385
1580560876000: system.mem_ctrls: mytrace writeOverhead 256260305000 swap 2 write 1905016 1688448
1580560876000: system.mem_ctrls: mytrace2 totalAccess 71032955 totalHit 36443536 overflow 392
1583272457000: system.mem_ctrls: mytrace writeOverhead 256997495000 swap 2 write 1918744 1347200
1583272457000: system.mem_ctrls: mytrace2 totalAccess 71303200 totalHit 36683082 overflow 392
1585928410000: system.mem_ctrls: mytrace writeOverhead 257697715000 swap 2 write 1928235 2893376
1585928410000: system.mem_ctrls: mytrace2 totalAccess 71530268 totalHit 36851822 overflow 394
1600964956000: system.mem_ctrls: mytrace writeOverhead 261097070000 swap 2 write 1936435 443456
1600964956000: system.mem_ctrls: mytrace2 totalAccess 72381605 totalHit 37103885 overflow 400
1612584163000: system.mem_ctrls: mytrace writeOverhead 263992095000 swap 2 write 1965804 3266432
1612584163000: system.mem_ctrls: mytrace2 totalAccess 73259423 totalHit 37660105 overflow 404
1637413246000: system.mem_ctrls: mytrace writeOverhead 269850170000 swap 2 write 1992923 2133440
1637413246000: system.mem_ctrls: mytrace2 totalAccess 74784077 totalHit 38269523 overflow 424
1662842384000: system.mem_ctrls: mytrace writeOverhead 275838690000 swap 2 write 2022538 1021568
1662842384000: system.mem_ctrls: mytrace2 totalAccess 76361841 totalHit 38925729 overflow 446
1663921969000: system.mem_ctrls: mytrace writeOverhead 276163850000 swap 2 write 2027986 2004992
1663921969000: system.mem_ctrls: mytrace2 totalAccess 76471926 totalHit 39019210 overflow 446
1664467894000: system.mem_ctrls: mytrace writeOverhead 276315765000 swap 2 write 2030728 795712
1664467894000: system.mem_ctrls: mytrace2 totalAccess 76526306 totalHit 39066750 overflow 446
1665039635000: system.mem_ctrls: mytrace writeOverhead 276483145000 swap 2 write 2033494 2338944
1665039635000: system.mem_ctrls: mytrace2 totalAccess 76582095 totalHit 39113074 overflow 446
1665621113000: system.mem_ctrls: mytrace writeOverhead 276663895000 swap 2 write 2036192 1118080
1665621113000: system.mem_ctrls: mytrace2 totalAccess 76638746 totalHit 39157993 overflow 447
1667789367000: system.mem_ctrls: mytrace writeOverhead 277257430000 swap 2 write 2047196 3238720
1667789367000: system.mem_ctrls: mytrace2 totalAccess 76855366 totalHit 39349379 overflow 447
1679078932000: system.mem_ctrls: mytrace writeOverhead 279901165000 swap 2 write 2055352 445120
1679078932000: system.mem_ctrls: mytrace2 totalAccess 77510907 totalHit 39557545 overflow 457
1692688542000: system.mem_ctrls: mytrace writeOverhead 283185345000 swap 2 write 2073558 2268928
1692688542000: system.mem_ctrls: mytrace2 totalAccess 78385445 totalHit 39947055 overflow 476
1694415583000: system.mem_ctrls: mytrace writeOverhead 283705790000 swap 2 write 2081776 2769472
1694415583000: system.mem_ctrls: mytrace2 totalAccess 78554084 totalHit 40084130 overflow 476
1695501504000: system.mem_ctrls: mytrace writeOverhead 284003220000 swap 2 write 2087298 1798272
1695501504000: system.mem_ctrls: mytrace2 totalAccess 78662454 totalHit 40179914 overflow 476
1696173780000: system.mem_ctrls: mytrace writeOverhead 284192345000 swap 2 write 2089738 1530560
1696173780000: system.mem_ctrls: mytrace2 totalAccess 78720503 totalHit 40221341 overflow 476
1710909084000: system.mem_ctrls: mytrace writeOverhead 287658555000 swap 2 write 2099798 2424384
1710909084000: system.mem_ctrls: mytrace2 totalAccess 79573997 totalHit 40486356 overflow 504
1719174232000: system.mem_ctrls: mytrace writeOverhead 289663520000 swap 2 write 2108405 1617984
1719174232000: system.mem_ctrls: mytrace2 totalAccess 80085836 totalHit 40682383 overflow 516
1721464172000: system.mem_ctrls: mytrace writeOverhead 290361455000 swap 2 write 2119282 1067520
1721464172000: system.mem_ctrls: mytrace2 totalAccess 80310669 totalHit 40864526 overflow 517
1722014866000: system.mem_ctrls: mytrace writeOverhead 290517980000 swap 2 write 2122067 2666560
1722014866000: system.mem_ctrls: mytrace2 totalAccess 80365472 totalHit 40911988 overflow 517
1722558453000: system.mem_ctrls: mytrace writeOverhead 290670175000 swap 2 write 2124814 2840192
1722558453000: system.mem_ctrls: mytrace2 totalAccess 80419888 totalHit 40959529 overflow 517
1734623167000: system.mem_ctrls: mytrace writeOverhead 293594170000 swap 2 write 2139469 446784
1734623167000: system.mem_ctrls: mytrace2 totalAccess 81180685 totalHit 41274388 overflow 534
1735751913000: system.mem_ctrls: mytrace writeOverhead 293859590000 swap 2 write 2140226 442432
1735751913000: system.mem_ctrls: mytrace2 totalAccess 81246321 totalHit 41294751 overflow 536
1741392537000: system.mem_ctrls: mytrace writeOverhead 295185405000 swap 2 write 2144116 447488
1741392537000: system.mem_ctrls: mytrace2 totalAccess 81574046 totalHit 41397279 overflow 545
1749631482000: system.mem_ctrls: mytrace writeOverhead 297362080000 swap 2 write 2162402 1092160
1749631482000: system.mem_ctrls: mytrace2 totalAccess 82179954 totalHit 41737157 overflow 554
1750729137000: system.mem_ctrls: mytrace writeOverhead 297670240000 swap 2 write 2167872 2869952
1750729137000: system.mem_ctrls: mytrace2 totalAccess 82289062 totalHit 41831787 overflow 554
1751271368000: system.mem_ctrls: mytrace writeOverhead 297819145000 swap 2 write 2170660 3017664
1751271368000: system.mem_ctrls: mytrace2 totalAccess 82343282 totalHit 41879858 overflow 554
1776780811000: system.mem_ctrls: mytrace writeOverhead 303991060000 swap 2 write 2199887 2214272
1776780811000: system.mem_ctrls: mytrace2 totalAccess 83934982 totalHit 42518978 overflow 593
1778592419000: system.mem_ctrls: mytrace writeOverhead 304582305000 swap 2 write 2208025 2696832
1778592419000: system.mem_ctrls: mytrace2 totalAccess 84109272 totalHit 42649770 overflow 596
1783506651000: system.mem_ctrls: mytrace writeOverhead 305835970000 swap 2 write 2219192 3455424
1783506651000: system.mem_ctrls: mytrace2 totalAccess 84469351 totalHit 42858579 overflow 599
1786868595000: system.mem_ctrls: mytrace writeOverhead 306633560000 swap 2 write 2221575 446080
1786868595000: system.mem_ctrls: mytrace2 totalAccess 84665845 totalHit 42920604 overflow 607
1803832376000: system.mem_ctrls: mytrace writeOverhead 310717550000 swap 2 write 2237819 1865408
1803832376000: system.mem_ctrls: mytrace2 totalAccess 85697839 totalHit 43296792 overflow 629
1806765323000: system.mem_ctrls: mytrace writeOverhead 311646520000 swap 2 write 2251482 2755456
1806765323000: system.mem_ctrls: mytrace2 totalAccess 85983140 totalHit 43520762 overflow 638
1807853349000: system.mem_ctrls: mytrace writeOverhead 311945095000 swap 2 write 2256973 3131968
1807853349000: system.mem_ctrls: mytrace2 totalAccess 86091554 totalHit 43616258 overflow 638
1816319424000: system.mem_ctrls: mytrace writeOverhead 313982710000 swap 2 write 2265193 461888
1816319424000: system.mem_ctrls: mytrace2 totalAccess 86607403 totalHit 43805117 overflow 651
1823034951000: system.mem_ctrls: mytrace writeOverhead 315582645000 swap 2 write 2270137 461440
1823034951000: system.mem_ctrls: mytrace2 totalAccess 87001135 totalHit 43930091 overflow 663
1824149878000: system.mem_ctrls: mytrace writeOverhead 315851380000 swap 2 write 2270972 444992
1824149878000: system.mem_ctrls: mytrace2 totalAccess 87066893 totalHit 43950876 overflow 666
1833890125000: system.mem_ctrls: mytrace writeOverhead 318415015000 swap 2 write 2289075 2746624
1833890125000: system.mem_ctrls: mytrace2 totalAccess 87749566 totalHit 44292015 overflow 678
1851168495000: system.mem_ctrls: mytrace writeOverhead 322716800000 swap 2 write 2313851 448768
1851168495000: system.mem_ctrls: mytrace2 totalAccess 88881037 totalHit 44796894 overflow 704
1859886578000: system.mem_ctrls: mytrace writeOverhead 324840525000 swap 2 write 2321576 1005760
1859886578000: system.mem_ctrls: mytrace2 totalAccess 89403824 totalHit 44974884 overflow 723
1865012916000: system.mem_ctrls: mytrace writeOverhead 326425855000 swap 2 write 2346164 3243968
1865012916000: system.mem_ctrls: mytrace2 totalAccess 89910340 totalHit 45385013 overflow 734
1867080261000: system.mem_ctrls: mytrace writeOverhead 326946445000 swap 2 write 2348710 2238272
1867080261000: system.mem_ctrls: mytrace2 totalAccess 90040140 totalHit 45435364 overflow 736
1878217298000: system.mem_ctrls: mytrace writeOverhead 329632470000 swap 2 write 2357611 445888
1878217298000: system.mem_ctrls: mytrace2 totalAccess 90697199 totalHit 45648151 overflow 761
1882670178000: system.mem_ctrls: mytrace writeOverhead 330690760000 swap 2 write 2360905 442432
1882670178000: system.mem_ctrls: mytrace2 totalAccess 90959134 totalHit 45732006 overflow 767
1892248814000: system.mem_ctrls: mytrace writeOverhead 333329980000 swap 2 write 2384268 1422272
1892248814000: system.mem_ctrls: mytrace2 totalAccess 91686195 totalHit 46151181 overflow 792
1893329418000: system.mem_ctrls: mytrace writeOverhead 333631345000 swap 2 write 2389817 1820608
1893329418000: system.mem_ctrls: mytrace2 totalAccess 91794810 totalHit 46246942 overflow 793
1904133337000: system.mem_ctrls: mytrace writeOverhead 336277165000 swap 2 write 2399591 461952
1904133337000: system.mem_ctrls: mytrace2 totalAccess 92448212 totalHit 46470503 overflow 818
1917013061000: system.mem_ctrls: mytrace writeOverhead 339402805000 swap 2 write 2411214 1368832
1917013061000: system.mem_ctrls: mytrace2 totalAccess 93226405 totalHit 46743751 overflow 848
1922292052000: system.mem_ctrls: mytrace writeOverhead 341046180000 swap 2 write 2435515 448576
1922292052000: system.mem_ctrls: mytrace2 totalAccess 93737391 totalHit 47147079 overflow 873
1933345921000: system.mem_ctrls: mytrace writeOverhead 343787920000 swap 2 write 2444868 448448
1933345921000: system.mem_ctrls: mytrace2 totalAccess 94398048 totalHit 47359719 overflow 908
1945402930000: system.mem_ctrls: mytrace writeOverhead 346732735000 swap 2 write 2455229 860480
1945402930000: system.mem_ctrls: mytrace2 totalAccess 95119747 totalHit 47599348 overflow 931
1946490698000: system.mem_ctrls: mytrace writeOverhead 347066615000 swap 2 write 2460666 1967360
1946490698000: system.mem_ctrls: mytrace2 totalAccess 95230527 totalHit 47692039 overflow 931
1947710596000: system.mem_ctrls: mytrace writeOverhead 347477485000 swap 2 write 2466119 2138752
1947710596000: system.mem_ctrls: mytrace2 totalAccess 95347546 totalHit 47778595 overflow 941
1952601910000: system.mem_ctrls: mytrace writeOverhead 348869440000 swap 2 write 2482299 445952
1952601910000: system.mem_ctrls: mytrace2 totalAccess 95757095 totalHit 48058236 overflow 962
1971764449000: system.mem_ctrls: mytrace writeOverhead 353416865000 swap 2 write 2496522 447808
1971764449000: system.mem_ctrls: mytrace2 totalAccess 96874311 totalHit 48412410 overflow 991
1974357515000: system.mem_ctrls: mytrace writeOverhead 354087600000 swap 2 write 2501401 1704128
1974357515000: system.mem_ctrls: mytrace2 totalAccess 97057662 totalHit 48507872 overflow 993
1974902712000: system.mem_ctrls: mytrace writeOverhead 354248985000 swap 2 write 2504142 2017664
1974902712000: system.mem_ctrls: mytrace2 totalAccess 97112628 totalHit 48554822 overflow 994
1975455648000: system.mem_ctrls: mytrace writeOverhead 354411060000 swap 2 write 2506890 2231488
1975455648000: system.mem_ctrls: mytrace2 totalAccess 97167618 totalHit 48601799 overflow 996
1981026017000: system.mem_ctrls: mytrace writeOverhead 356078885000 swap 2 write 2525771 447040
1981026017000: system.mem_ctrls: mytrace2 totalAccess 97640959 totalHit 48919240 overflow 1031
1998860823000: system.mem_ctrls: mytrace writeOverhead 360400930000 swap 2 write 2539676 1382016
1998860823000: system.mem_ctrls: mytrace2 totalAccess 98694073 totalHit 49255285 overflow 1077
2005723562000: system.mem_ctrls: mytrace writeOverhead 362413890000 swap 2 write 2558677 2579776
2005723562000: system.mem_ctrls: mytrace2 totalAccess 99239769 totalHit 49581213 overflow 1106
2006285581000: system.mem_ctrls: mytrace writeOverhead 362572040000 swap 2 write 2561363 2794688
2006285581000: system.mem_ctrls: mytrace2 totalAccess 99294512 totalHit 49627947 overflow 1107
2017048012000: system.mem_ctrls: mytrace writeOverhead 365249485000 swap 2 write 2575839 450048
2017048012000: system.mem_ctrls: mytrace2 totalAccess 99990695 totalHit 49926665 overflow 1129
2018174124000: system.mem_ctrls: mytrace writeOverhead 365513095000 swap 2 write 2576645 461696
2018174124000: system.mem_ctrls: mytrace2 totalAccess 100056262 totalHit 49947474 overflow 1129
2022683522000: system.mem_ctrls: mytrace writeOverhead 366579780000 swap 2 write 2579862 3357184
2022683522000: system.mem_ctrls: mytrace2 totalAccess 100318854 totalHit 50030018 overflow 1136
2024956152000: system.mem_ctrls: mytrace writeOverhead 367108240000 swap 2 write 2581410 773824
2024956152000: system.mem_ctrls: mytrace2 totalAccess 100449901 totalHit 50071042 overflow 1138
2027200901000: system.mem_ctrls: mytrace writeOverhead 367647270000 swap 2 write 2582985 442048
2027200901000: system.mem_ctrls: mytrace2 totalAccess 100581701 totalHit 50111591 overflow 1143
2029448972000: system.mem_ctrls: mytrace writeOverhead 368182105000 swap 2 write 2584490 449856
2029448972000: system.mem_ctrls: mytrace2 totalAccess 100713373 totalHit 50151670 overflow 1145
2033474854000: system.mem_ctrls: mytrace writeOverhead 369472370000 swap 2 write 2599095 2370560
2033474854000: system.mem_ctrls: mytrace2 totalAccess 101070676 totalHit 50391114 overflow 1165
2034031953000: system.mem_ctrls: mytrace writeOverhead 369641725000 swap 2 write 2601847 2608000
2034031953000: system.mem_ctrls: mytrace2 totalAccess 101126385 totalHit 50437405 overflow 1165
2039908968000: system.mem_ctrls: mytrace writeOverhead 371138020000 swap 2 write 2614300 449408
2039908968000: system.mem_ctrls: mytrace2 totalAccess 101549431 totalHit 50673506 overflow 1173
2058876212000: system.mem_ctrls: mytrace writeOverhead 375613390000 swap 2 write 2628474 1125440
2058876212000: system.mem_ctrls: mytrace2 totalAccess 102660097 totalHit 51033941 overflow 1200
2077294024000: system.mem_ctrls: mytrace writeOverhead 380525810000 swap 2 write 2664343 447104
2077294024000: system.mem_ctrls: mytrace2 totalAccess 103962671 totalHit 51696474 overflow 1249
2082936306000: system.mem_ctrls: mytrace writeOverhead 381847785000 swap 2 write 2668283 9278848
2082936306000: system.mem_ctrls: mytrace2 totalAccess 104290189 totalHit 51799760 overflow 1255
2089625141000: system.mem_ctrls: mytrace writeOverhead 383696830000 swap 2 write 2682958 1258048
2089625141000: system.mem_ctrls: mytrace2 totalAccess 104781989 totalHit 52064622 overflow 1285
2091494225000: system.mem_ctrls: mytrace writeOverhead 384345105000 swap 2 write 2691048 2797888
2091494225000: system.mem_ctrls: mytrace2 totalAccess 104960464 totalHit 52190817 overflow 1294
2100083049000: system.mem_ctrls: mytrace writeOverhead 386494015000 swap 2 write 2703763 11205824
2100083049000: system.mem_ctrls: mytrace2 totalAccess 105524866 totalHit 52447271 overflow 1321
2105684068000: system.mem_ctrls: mytrace writeOverhead 387831900000 swap 2 write 2708023 445824
2105684068000: system.mem_ctrls: mytrace2 totalAccess 105853430 totalHit 52552202 overflow 1328
2106802634000: system.mem_ctrls: mytrace writeOverhead 388098735000 swap 2 write 2708869 2838208
2106802634000: system.mem_ctrls: mytrace2 totalAccess 105918995 totalHit 52573253 overflow 1330
2108496399000: system.mem_ctrls: mytrace writeOverhead 388750240000 swap 2 write 2713866 442496
2108496399000: system.mem_ctrls: mytrace2 totalAccess 106058089 totalHit 52633993 overflow 1336
2119125000000: system.mem_ctrls: mytrace writeOverhead 391528280000 swap 2 write 2733516 2630272
2119125000000: system.mem_ctrls: mytrace2 totalAccess 106798951 totalHit 53009215 overflow 1368
2121642996000: system.mem_ctrls: mytrace writeOverhead 392425545000 swap 2 write 2744389 1736960
2121642996000: system.mem_ctrls: mytrace2 totalAccess 107039750 totalHit 53175348 overflow 1385
2122202979000: system.mem_ctrls: mytrace writeOverhead 392587080000 swap 2 write 2747107 3326400
2122202979000: system.mem_ctrls: mytrace2 totalAccess 107094737 totalHit 53222094 overflow 1390
2124375944000: system.mem_ctrls: mytrace writeOverhead 393132360000 swap 2 write 2749043 2694528
2124375944000: system.mem_ctrls: mytrace2 totalAccess 107226683 totalHit 53265300 overflow 1395
2148374874000: system.mem_ctrls: mytrace writeOverhead 399197960000 swap 2 write 2778790 2552320
2148374874000: system.mem_ctrls: mytrace2 totalAccess 108761088 totalHit 53885815 overflow 1462
2178910399000: system.mem_ctrls: mytrace writeOverhead 407285910000 swap 2 write 2829889 2472768
2178910399000: system.mem_ctrls: mytrace2 totalAccess 110841291 totalHit 54851206 overflow 1567
2188287411000: system.mem_ctrls: mytrace writeOverhead 409830090000 swap 2 write 2845364 446720
2188287411000: system.mem_ctrls: mytrace2 totalAccess 111479495 totalHit 55135893 overflow 1605
2200472579000: system.mem_ctrls: mytrace writeOverhead 412797080000 swap 2 write 2855164 448576
2200472579000: system.mem_ctrls: mytrace2 totalAccess 112203513 totalHit 55368600 overflow 1628
2206903905000: system.mem_ctrls: mytrace writeOverhead 414550415000 swap 2 write 2870283 1241088
2206903905000: system.mem_ctrls: mytrace2 totalAccess 112686701 totalHit 55645785 overflow 1652
2208159783000: system.mem_ctrls: mytrace writeOverhead 414990830000 swap 2 write 2875709 1349888
2208159783000: system.mem_ctrls: mytrace2 totalAccess 112806971 totalHit 55728884 overflow 1653
2208906799000: system.mem_ctrls: mytrace writeOverhead 415304365000 swap 2 write 2878373 1988800
2208906799000: system.mem_ctrls: mytrace2 totalAccess 112875070 totalHit 55762069 overflow 1654
2210034415000: system.mem_ctrls: mytrace writeOverhead 415648655000 swap 2 write 2883844 3241152
2210034415000: system.mem_ctrls: mytrace2 totalAccess 112986649 totalHit 55854240 overflow 1662
2214270638000: system.mem_ctrls: mytrace writeOverhead 416717285000 swap 2 write 2888149 444800
2214270638000: system.mem_ctrls: mytrace2 totalAccess 113247706 totalHit 55946940 overflow 1682
2223160394000: system.mem_ctrls: mytrace writeOverhead 418883435000 swap 2 write 2895245 442496
2223160394000: system.mem_ctrls: mytrace2 totalAccess 113774822 totalHit 56115424 overflow 1701
2224281558000: system.mem_ctrls: mytrace writeOverhead 419153815000 swap 2 write 2896097 1273472
2224281558000: system.mem_ctrls: mytrace2 totalAccess 113840830 totalHit 56136111 overflow 1702
2233195849000: system.mem_ctrls: mytrace writeOverhead 421323455000 swap 2 write 2903029 2481920
2233195849000: system.mem_ctrls: mytrace2 totalAccess 114368217 totalHit 56303184 overflow 1725
2234440031000: system.mem_ctrls: mytrace writeOverhead 421689545000 swap 2 write 2907891 1904000
2234440031000: system.mem_ctrls: mytrace2 totalAccess 114481860 totalHit 56388393 overflow 1727
2236172755000: system.mem_ctrls: mytrace writeOverhead 422228065000 swap 2 write 2915995 2705536
2236172755000: system.mem_ctrls: mytrace2 totalAccess 114651069 totalHit 56523994 overflow 1730
2237498237000: system.mem_ctrls: mytrace writeOverhead 422725465000 swap 2 write 2921421 997888
2237498237000: system.mem_ctrls: mytrace2 totalAccess 114776260 totalHit 56602176 overflow 1731
2238782096000: system.mem_ctrls: mytrace writeOverhead 423186725000 swap 2 write 2926851 3101440
2238782096000: system.mem_ctrls: mytrace2 totalAccess 114898408 totalHit 56683445 overflow 1731
2243770454000: system.mem_ctrls: mytrace writeOverhead 424428390000 swap 2 write 2933425 1424256
2243770454000: system.mem_ctrls: mytrace2 totalAccess 115216956 totalHit 56816764 overflow 1741
2248231850000: system.mem_ctrls: mytrace writeOverhead 425514595000 swap 2 write 2937085 457024
2248231850000: system.mem_ctrls: mytrace2 totalAccess 115480874 totalHit 56901604 overflow 1750
2263320492000: system.mem_ctrls: mytrace writeOverhead 429186220000 swap 2 write 2951070 1428608
2263320492000: system.mem_ctrls: mytrace2 totalAccess 116391355 totalHit 57221249 overflow 1778
2270033401000: system.mem_ctrls: mytrace writeOverhead 431324670000 swap 2 write 2975992 442944
2270033401000: system.mem_ctrls: mytrace2 totalAccess 116988523 totalHit 57623123 overflow 1787
2284569794000: system.mem_ctrls: mytrace writeOverhead 434831305000 swap 2 write 2987171 448192
2284569794000: system.mem_ctrls: mytrace2 totalAccess 117844612 totalHit 57894710 overflow 1817
2286786674000: system.mem_ctrls: mytrace writeOverhead 435367220000 swap 2 write 2988975 444992
2286786674000: system.mem_ctrls: mytrace2 totalAccess 117976001 totalHit 57937241 overflow 1819
2292036301000: system.mem_ctrls: mytrace writeOverhead 436659140000 swap 2 write 2994344 1304768
2292036301000: system.mem_ctrls: mytrace2 totalAccess 118298819 totalHit 58056673 overflow 1832
2296384710000: system.mem_ctrls: mytrace writeOverhead 438185625000 swap 2 write 3013299 703744
2296384710000: system.mem_ctrls: mytrace2 totalAccess 118717823 totalHit 58349201 overflow 1834
2296957414000: system.mem_ctrls: mytrace writeOverhead 438357805000 swap 2 write 3016008 3089088
2296957414000: system.mem_ctrls: mytrace2 totalAccess 118773811 totalHit 58394867 overflow 1834
2318474688000: system.mem_ctrls: mytrace writeOverhead 443620840000 swap 2 write 3036088 442496
2318474688000: system.mem_ctrls: mytrace2 totalAccess 120076281 totalHit 58849708 overflow 1880
2320669097000: system.mem_ctrls: mytrace writeOverhead 444143425000 swap 2 write 3037849 853824
2320669097000: system.mem_ctrls: mytrace2 totalAccess 120206208 totalHit 58893508 overflow 1884
2321226729000: system.mem_ctrls: mytrace writeOverhead 444330465000 swap 2 write 3040539 1675328
2321226729000: system.mem_ctrls: mytrace2 totalAccess 120262996 totalHit 58938225 overflow 1885
2340125757000: system.mem_ctrls: mytrace writeOverhead 449471195000 swap 2 write 3075175 2332608
2340125757000: system.mem_ctrls: mytrace2 totalAccess 121586431 totalHit 59569403 overflow 1918
2343411664000: system.mem_ctrls: mytrace writeOverhead 450282785000 swap 2 write 3078042 2112640
2343411664000: system.mem_ctrls: mytrace2 totalAccess 121783710 totalHit 59634481 overflow 1927
2347815082000: system.mem_ctrls: mytrace writeOverhead 451356635000 swap 2 write 3081760 444928
2347815082000: system.mem_ctrls: mytrace2 totalAccess 122046365 totalHit 59720706 overflow 1933
2351123927000: system.mem_ctrls: mytrace writeOverhead 452240830000 swap 2 write 3088970 676928
2351123927000: system.mem_ctrls: mytrace2 totalAccess 122288896 totalHit 59855464 overflow 1942
2352293982000: system.mem_ctrls: mytrace writeOverhead 452617695000 swap 2 write 3094384 1272960
2352293982000: system.mem_ctrls: mytrace2 totalAccess 122403219 totalHit 59944422 overflow 1942
2352855758000: system.mem_ctrls: mytrace writeOverhead 452788105000 swap 2 write 3097104 2857280
2352855758000: system.mem_ctrls: mytrace2 totalAccess 122458896 totalHit 59990490 overflow 1943
2353569219000: system.mem_ctrls: mytrace writeOverhead 453073900000 swap 2 write 3099795 2542976
2353569219000: system.mem_ctrls: mytrace2 totalAccess 122524775 totalHit 60026104 overflow 1943
2354320352000: system.mem_ctrls: mytrace writeOverhead 453390800000 swap 2 write 3102470 2581888
2354320352000: system.mem_ctrls: mytrace2 totalAccess 122593187 totalHit 60059072 overflow 1944
2360695824000: system.mem_ctrls: mytrace writeOverhead 455088250000 swap 2 write 3114030 2280896
2360695824000: system.mem_ctrls: mytrace2 totalAccess 123033328 totalHit 60270617 overflow 1957
2367345135000: system.mem_ctrls: mytrace writeOverhead 456709380000 swap 2 write 3119588 461888
2367345135000: system.mem_ctrls: mytrace2 totalAccess 123427765 totalHit 60399618 overflow 1975
2378384615000: system.mem_ctrls: mytrace writeOverhead 459381495000 swap 2 write 3128506 447296
2378384615000: system.mem_ctrls: mytrace2 totalAccess 124082987 totalHit 60613761 overflow 1997
2384424054000: system.mem_ctrls: mytrace writeOverhead 461416455000 swap 2 write 3151164 2973120
2384424054000: system.mem_ctrls: mytrace2 totalAccess 124628320 totalHit 60969450 overflow 2005
2407779891000: system.mem_ctrls: mytrace writeOverhead 467172680000 swap 2 write 3173963 449664
2407779891000: system.mem_ctrls: mytrace2 totalAccess 126057204 totalHit 61479370 overflow 2062
2411547588000: system.mem_ctrls: mytrace writeOverhead 468367495000 swap 2 write 3189263 739392
2411547588000: system.mem_ctrls: mytrace2 totalAccess 126406355 totalHit 61732487 overflow 2068
2412297469000: system.mem_ctrls: mytrace writeOverhead 468685490000 swap 2 write 3191927 2861120
2412297469000: system.mem_ctrls: mytrace2 totalAccess 126474778 totalHit 61765358 overflow 2070
2421804888000: system.mem_ctrls: mytrace writeOverhead 471223515000 swap 2 write 3207087 441152
2421804888000: system.mem_ctrls: mytrace2 totalAccess 127114240 totalHit 62046020 overflow 2089
2427357548000: system.mem_ctrls: mytrace writeOverhead 472566645000 swap 2 write 3211405 1330880
2427357548000: system.mem_ctrls: mytrace2 totalAccess 127442991 totalHit 62151034 overflow 2098
2433941831000: system.mem_ctrls: mytrace writeOverhead 474187180000 swap 2 write 3216944 449472
2433941831000: system.mem_ctrls: mytrace2 totalAccess 127837430 totalHit 62279966 overflow 2115
2434856834000: system.mem_ctrls: mytrace writeOverhead 474484975000 swap 2 write 3218892 2446976
2434856834000: system.mem_ctrls: mytrace2 totalAccess 127904833 totalHit 62308014 overflow 2117
2435483176000: system.mem_ctrls: mytrace writeOverhead 474869355000 swap 2 write 3222897 2138816
2435483176000: system.mem_ctrls: mytrace2 totalAccess 127978667 totalHit 62346202 overflow 2118
2443739944000: system.mem_ctrls: mytrace writeOverhead 477649670000 swap 2 write 3249045 2027968
2443739944000: system.mem_ctrls: mytrace2 totalAccess 128672401 totalHit 62741212 overflow 2135
2444379246000: system.mem_ctrls: mytrace writeOverhead 477873750000 swap 2 write 3251766 2999040
2444379246000: system.mem_ctrls: mytrace2 totalAccess 128732798 totalHit 62782557 overflow 2135
2446886642000: system.mem_ctrls: mytrace writeOverhead 478533715000 swap 2 write 3257375 2472192
2446886642000: system.mem_ctrls: mytrace2 totalAccess 128915564 totalHit 62884418 overflow 2137
2453845211000: system.mem_ctrls: mytrace writeOverhead 480625960000 swap 2 write 3269125 448704
2453845211000: system.mem_ctrls: mytrace2 totalAccess 129390916 totalHit 63062501 overflow 2149
2457169938000: system.mem_ctrls: mytrace writeOverhead 481441055000 swap 2 write 3271972 447680
2457169938000: system.mem_ctrls: mytrace2 totalAccess 129588737 totalHit 63127032 overflow 2158
2469387549000: system.mem_ctrls: mytrace writeOverhead 484435350000 swap 2 write 3282215 446976
2469387549000: system.mem_ctrls: mytrace2 totalAccess 130314862 totalHit 63360925 overflow 2182
2470233679000: system.mem_ctrls: mytrace writeOverhead 484660450000 swap 2 write 3283868 1208256
2470233679000: system.mem_ctrls: mytrace2 totalAccess 130375865 totalHit 63393069 overflow 2183
2471357961000: system.mem_ctrls: mytrace writeOverhead 485018700000 swap 2 write 3289312 2200640
2471357961000: system.mem_ctrls: mytrace2 totalAccess 130488558 totalHit 63483911 overflow 2184
2472627257000: system.mem_ctrls: mytrace writeOverhead 485477570000 swap 2 write 3294721 914688
2472627257000: system.mem_ctrls: mytrace2 totalAccess 130609905 totalHit 63565802 overflow 2186
2474760302000: system.mem_ctrls: mytrace writeOverhead 486330425000 swap 2 write 3302732 2841344
2474760302000: system.mem_ctrls: mytrace2 totalAccess 130806749 totalHit 63672986 overflow 2187
2475318430000: system.mem_ctrls: mytrace writeOverhead 486494550000 swap 2 write 3305489 3023040
2475318430000: system.mem_ctrls: mytrace2 totalAccess 130862115 totalHit 63719663 overflow 2187
2482290121000: system.mem_ctrls: mytrace writeOverhead 488245985000 swap 2 write 3314309 447424
2482290121000: system.mem_ctrls: mytrace2 totalAccess 131309808 totalHit 63901917 overflow 2197
2495941795000: system.mem_ctrls: mytrace writeOverhead 491915835000 swap 2 write 3330420 2609024
2495941795000: system.mem_ctrls: mytrace2 totalAccess 132176670 totalHit 64202395 overflow 2224
2498787758000: system.mem_ctrls: mytrace writeOverhead 492840140000 swap 2 write 3336250 780992
2498787758000: system.mem_ctrls: mytrace2 totalAccess 132382377 totalHit 64283026 overflow 2226
2499411944000: system.mem_ctrls: mytrace writeOverhead 493221095000 swap 2 write 3340240 2588736
2499411944000: system.mem_ctrls: mytrace2 totalAccess 132455977 totalHit 64321333 overflow 2227
2503503012000: system.mem_ctrls: mytrace writeOverhead 494666775000 swap 2 write 3351609 1126720
2503503012000: system.mem_ctrls: mytrace2 totalAccess 132788149 totalHit 64479749 overflow 2229
2510914121000: system.mem_ctrls: mytrace writeOverhead 496869380000 swap 2 write 3373781 2530304
2510914121000: system.mem_ctrls: mytrace2 totalAccess 133392895 totalHit 64851704 overflow 2237
2526209358000: system.mem_ctrls: mytrace writeOverhead 500693360000 swap 2 write 3387572 2168576
2526209358000: system.mem_ctrls: mytrace2 totalAccess 134317287 totalHit 65155074 overflow 2266
2530781062000: system.mem_ctrls: mytrace writeOverhead 502263880000 swap 2 write 3398078 660288
2530781062000: system.mem_ctrls: mytrace2 totalAccess 134661456 totalHit 65294373 overflow 2277
2532757827000: system.mem_ctrls: mytrace writeOverhead 502843660000 swap 2 write 3401361 1557376
2532757827000: system.mem_ctrls: mytrace2 totalAccess 134795378 totalHit 65346305 overflow 2280
2534121594000: system.mem_ctrls: mytrace writeOverhead 503384215000 swap 2 write 3406722 2794752
2534121594000: system.mem_ctrls: mytrace2 totalAccess 134923950 totalHit 65420603 overflow 2281
2534866437000: system.mem_ctrls: mytrace writeOverhead 503694995000 swap 2 write 3409390 701952
2534866437000: system.mem_ctrls: mytrace2 totalAccess 134991863 totalHit 65454007 overflow 2282
2536107591000: system.mem_ctrls: mytrace writeOverhead 504133510000 swap 2 write 3414779 2146048
2536107591000: system.mem_ctrls: mytrace2 totalAccess 135111692 totalHit 65537266 overflow 2282
2536709091000: system.mem_ctrls: mytrace writeOverhead 504338530000 swap 2 write 3417476 1141696
2536709091000: system.mem_ctrls: mytrace2 totalAccess 135170105 totalHit 65580413 overflow 2283
2537310363000: system.mem_ctrls: mytrace writeOverhead 504544100000 swap 2 write 3420187 1420416
2537310363000: system.mem_ctrls: mytrace2 totalAccess 135228592 totalHit 65623598 overflow 2285
2564582049000: system.mem_ctrls: mytrace writeOverhead 511921715000 swap 2 write 3461339 611200
2564582049000: system.mem_ctrls: mytrace2 totalAccess 137043952 totalHit 66373775 overflow 2341
2565840541000: system.mem_ctrls: mytrace writeOverhead 512371340000 swap 2 write 3466743 1178112
2565840541000: system.mem_ctrls: mytrace2 totalAccess 137164426 totalHit 66456507 overflow 2343
2567346286000: system.mem_ctrls: mytrace writeOverhead 513001565000 swap 2 write 3472028 2141760
2567346286000: system.mem_ctrls: mytrace2 totalAccess 137301090 totalHit 66522070 overflow 2343
2568585420000: system.mem_ctrls: mytrace writeOverhead 513428220000 swap 2 write 3477429 2957120
2568585420000: system.mem_ctrls: mytrace2 totalAccess 137419934 totalHit 66606419 overflow 2344
2569128651000: system.mem_ctrls: mytrace writeOverhead 513585225000 swap 2 write 3480231 3166336
2569128651000: system.mem_ctrls: mytrace2 totalAccess 137474705 totalHit 66654051 overflow 2345
2576572291000: system.mem_ctrls: mytrace writeOverhead 515423810000 swap 2 write 3487954 444864
2576572291000: system.mem_ctrls: mytrace2 totalAccess 137930570 totalHit 66818933 overflow 2359
2586674486000: system.mem_ctrls: mytrace writeOverhead 517850145000 swap 2 write 3495403 445184
2586674486000: system.mem_ctrls: mytrace2 totalAccess 138523456 totalHit 67004381 overflow 2378
2626178244000: system.mem_ctrls: mytrace writeOverhead 528871520000 swap 2 write 3565457 1438912
2626178244000: system.mem_ctrls: mytrace2 totalAccess 141278340 totalHit 68246604 overflow 2435
2626730405000: system.mem_ctrls: mytrace writeOverhead 529028500000 swap 2 write 3568201 3026816
2626730405000: system.mem_ctrls: mytrace2 totalAccess 141333113 totalHit 68293769 overflow 2435
2627267283000: system.mem_ctrls: mytrace writeOverhead 529184210000 swap 2 write 3570974 3268288
2627267283000: system.mem_ctrls: mytrace2 totalAccess 141387816 totalHit 68341239 overflow 2435
2651438330000: system.mem_ctrls: mytrace writeOverhead 535143880000 swap 2 write 3595570 855808
2651438330000: system.mem_ctrls: mytrace2 totalAccess 142876828 totalHit 68885723 overflow 2477
2652042180000: system.mem_ctrls: mytrace writeOverhead 535350840000 swap 2 write 3598270 2620544
2652042180000: system.mem_ctrls: mytrace2 totalAccess 142935405 totalHit 68928727 overflow 2478
2654954344000: system.mem_ctrls: mytrace writeOverhead 536540310000 swap 2 write 3608925 852160
2654954344000: system.mem_ctrls: mytrace2 totalAccess 143201986 totalHit 69067329 overflow 2484
2655510993000: system.mem_ctrls: mytrace writeOverhead 536706310000 swap 2 write 3611695 1633920
2655510993000: system.mem_ctrls: mytrace2 totalAccess 143257361 totalHit 69114102 overflow 2485
2661352483000: system.mem_ctrls: mytrace writeOverhead 538173915000 swap 2 write 3619878 448576
2661352483000: system.mem_ctrls: mytrace2 totalAccess 143637121 totalHit 69278992 overflow 2497
2669156718000: system.mem_ctrls: mytrace writeOverhead 540069375000 swap 2 write 3626326 442048
2669156718000: system.mem_ctrls: mytrace2 totalAccess 144098704 totalHit 69428216 overflow 2509
2671358486000: system.mem_ctrls: mytrace writeOverhead 540610840000 swap 2 write 3628225 954368
2671358486000: system.mem_ctrls: mytrace2 totalAccess 144230081 totalHit 69471758 overflow 2517
2679769795000: system.mem_ctrls: mytrace writeOverhead 542715160000 swap 2 write 3636800 1412480
2679769795000: system.mem_ctrls: mytrace2 totalAccess 144749974 totalHit 69659217 overflow 2535
2681550461000: system.mem_ctrls: mytrace writeOverhead 543313660000 swap 2 write 3644922 1366976
2681550461000: system.mem_ctrls: mytrace2 totalAccess 144924334 totalHit 69789808 overflow 2536
2683808980000: system.mem_ctrls: mytrace writeOverhead 544263975000 swap 2 write 3652896 1480640
2683808980000: system.mem_ctrls: mytrace2 totalAccess 145129521 totalHit 69888353 overflow 2539
2684971437000: system.mem_ctrls: mytrace writeOverhead 544630760000 swap 2 write 3658330 3051840
2684971437000: system.mem_ctrls: mytrace2 totalAccess 145243289 totalHit 69978043 overflow 2540
2697358045000: system.mem_ctrls: mytrace writeOverhead 547803120000 swap 2 write 3672759 2181824
2697358045000: system.mem_ctrls: mytrace2 totalAccess 146025432 totalHit 70269912 overflow 2559
2710320233000: system.mem_ctrls: mytrace writeOverhead 551118585000 swap 2 write 3689220 2352960
2710320233000: system.mem_ctrls: mytrace2 totalAccess 146859347 totalHit 70606442 overflow 2589
2712467525000: system.mem_ctrls: mytrace writeOverhead 551986340000 swap 2 write 3697247 692416
2712467525000: system.mem_ctrls: mytrace2 totalAccess 147057199 totalHit 70712784 overflow 2592
2714928925000: system.mem_ctrls: mytrace writeOverhead 552831560000 swap 2 write 3708123 1912000
2714928925000: system.mem_ctrls: mytrace2 totalAccess 147294759 totalHit 70882193 overflow 2592
2718908207000: system.mem_ctrls: mytrace writeOverhead 553958720000 swap 2 write 3714019 2508160
2718908207000: system.mem_ctrls: mytrace2 totalAccess 147560750 totalHit 70983041 overflow 2599
2719537602000: system.mem_ctrls: mytrace writeOverhead 554347275000 swap 2 write 3718029 1238080
2719537602000: system.mem_ctrls: mytrace2 totalAccess 147634970 totalHit 71020887 overflow 2599
2728479958000: system.mem_ctrls: mytrace writeOverhead 557032995000 swap 2 write 3733048 2012928
2728479958000: system.mem_ctrls: mytrace2 totalAccess 148244631 totalHit 71250368 overflow 2620
2735793688000: system.mem_ctrls: mytrace writeOverhead 559037640000 swap 2 write 3742400 2439488
2735793688000: system.mem_ctrls: mytrace2 totalAccess 148714169 totalHit 71414949 overflow 2629
2739019344000: system.mem_ctrls: mytrace writeOverhead 559871650000 swap 2 write 3745633 1474496
2739019344000: system.mem_ctrls: mytrace2 totalAccess 148913178 totalHit 71481419 overflow 2637
2741185222000: system.mem_ctrls: mytrace writeOverhead 560421385000 swap 2 write 3747657 447552
2741185222000: system.mem_ctrls: mytrace2 totalAccess 149045419 totalHit 71525154 overflow 2642
2743667450000: system.mem_ctrls: mytrace writeOverhead 561251480000 swap 2 write 3758064 2553280
2743667450000: system.mem_ctrls: mytrace2 totalAccess 149280700 totalHit 71693082 overflow 2644
2745179574000: system.mem_ctrls: mytrace writeOverhead 561891980000 swap 2 write 3763394 2426112
2745179574000: system.mem_ctrls: mytrace2 totalAccess 149418075 totalHit 71758309 overflow 2646
2746511328000: system.mem_ctrls: mytrace writeOverhead 562393095000 swap 2 write 3768751 2896576
2746511328000: system.mem_ctrls: mytrace2 totalAccess 149543183 totalHit 71836013 overflow 2648
2748715300000: system.mem_ctrls: mytrace writeOverhead 562996435000 swap 2 write 3775293 2494848
2748715300000: system.mem_ctrls: mytrace2 totalAccess 149720384 totalHit 71951061 overflow 2650
2757412375000: system.mem_ctrls: mytrace writeOverhead 565181080000 swap 2 write 3783061 2377216
2757412375000: system.mem_ctrls: mytrace2 totalAccess 150248093 totalHit 72124443 overflow 2673
2769515694000: system.mem_ctrls: mytrace writeOverhead 568226530000 swap 2 write 3793925 448576
2769515694000: system.mem_ctrls: mytrace2 totalAccess 150977320 totalHit 72360807 overflow 2708
2776220218000: system.mem_ctrls: mytrace writeOverhead 570515190000 swap 2 write 3815029 1436352
2776220218000: system.mem_ctrls: mytrace2 totalAccess 151545353 totalHit 72681348 overflow 2723
2781445734000: system.mem_ctrls: mytrace writeOverhead 572466115000 swap 2 write 3833841 2577920
2781445734000: system.mem_ctrls: mytrace2 totalAccess 152002501 totalHit 72934252 overflow 2740
2782480703000: system.mem_ctrls: mytrace writeOverhead 572753255000 swap 2 write 3835221 1170048
2782480703000: system.mem_ctrls: mytrace2 totalAccess 152069525 totalHit 72958100 overflow 2741
2786210640000: system.mem_ctrls: mytrace writeOverhead 573979435000 swap 2 write 3843060 2135488
2786210640000: system.mem_ctrls: mytrace2 totalAccess 152342432 totalHit 73067492 overflow 2750
2798044432000: system.mem_ctrls: mytrace writeOverhead 577048140000 swap 2 write 3855119 448512
2798044432000: system.mem_ctrls: mytrace2 totalAccess 153073701 totalHit 73311252 overflow 2777
2799164463000: system.mem_ctrls: mytrace writeOverhead 577315685000 swap 2 write 3855963 2440768
2799164463000: system.mem_ctrls: mytrace2 totalAccess 153139562 totalHit 73331997 overflow 2777
2804773986000: system.mem_ctrls: mytrace writeOverhead 578755660000 swap 2 write 3864587 762112
2804773986000: system.mem_ctrls: mytrace2 totalAccess 153515861 totalHit 73503899 overflow 2786
2806691769000: system.mem_ctrls: mytrace writeOverhead 579453640000 swap 2 write 3872674 1193792
2806691769000: system.mem_ctrls: mytrace2 totalAccess 153698789 totalHit 73625640 overflow 2787
2813390944000: system.mem_ctrls: mytrace writeOverhead 581551895000 swap 2 write 3888823 2854528
2813390944000: system.mem_ctrls: mytrace2 totalAccess 154213112 totalHit 73880104 overflow 2800
2814510600000: system.mem_ctrls: mytrace writeOverhead 581824430000 swap 2 write 3889644 446784
2814510600000: system.mem_ctrls: mytrace2 totalAccess 154279186 totalHit 73900462 overflow 2803
2831132867000: system.mem_ctrls: mytrace writeOverhead 585905750000 swap 2 write 3902733 1342400
2831132867000: system.mem_ctrls: mytrace2 totalAccess 155269409 totalHit 74213031 overflow 2844
2834305176000: system.mem_ctrls: mytrace writeOverhead 586783955000 swap 2 write 3910440 947136
2834305176000: system.mem_ctrls: mytrace2 totalAccess 155511176 totalHit 74352629 overflow 2849
2834901492000: system.mem_ctrls: mytrace writeOverhead 586987840000 swap 2 write 3913130 2725120
2834901492000: system.mem_ctrls: mytrace2 totalAccess 155569517 totalHit 74395795 overflow 2849
2837064321000: system.mem_ctrls: mytrace writeOverhead 587868620000 swap 2 write 3921171 911104
2837064321000: system.mem_ctrls: mytrace2 totalAccess 155768617 totalHit 74501004 overflow 2853
2837815401000: system.mem_ctrls: mytrace writeOverhead 588180555000 swap 2 write 3923821 644480
2837815401000: system.mem_ctrls: mytrace2 totalAccess 155836554 totalHit 74534237 overflow 2855
2838458646000: system.mem_ctrls: mytrace writeOverhead 588409525000 swap 2 write 3926540 2990784
2838458646000: system.mem_ctrls: mytrace2 totalAccess 155897371 totalHit 74575153 overflow 2855
2854230856000: system.mem_ctrls: mytrace writeOverhead 592302270000 swap 2 write 3942631 2507072
2854230856000: system.mem_ctrls: mytrace2 totalAccess 156869012 totalHit 74930384 overflow 2889
2871856131000: system.mem_ctrls: mytrace writeOverhead 597384910000 swap 2 write 3978161 1041728
2871856131000: system.mem_ctrls: mytrace2 totalAccess 158142727 totalHit 75539414 overflow 2920
2889619346000: system.mem_ctrls: mytrace writeOverhead 601734560000 swap 2 write 3992467 461504
2889619346000: system.mem_ctrls: mytrace2 totalAccess 159198390 totalHit 75875481 overflow 2958
2892433013000: system.mem_ctrls: mytrace writeOverhead 602470840000 swap 2 write 3996684 1535936
2892433013000: system.mem_ctrls: mytrace2 totalAccess 159387393 totalHit 75959956 overflow 2967
2893613267000: system.mem_ctrls: mytrace writeOverhead 602865405000 swap 2 write 4002092 2613632
2893613267000: system.mem_ctrls: mytrace2 totalAccess 159502955 totalHit 76047642 overflow 2970
2917169086000: system.mem_ctrls: mytrace writeOverhead 609290945000 swap 2 write 4035869 443072
2917169086000: system.mem_ctrls: mytrace2 totalAccess 161067505 totalHit 76670726 overflow 3023
2921935685000: system.mem_ctrls: mytrace writeOverhead 610815210000 swap 2 write 4045006 2638592
2921935685000: system.mem_ctrls: mytrace2 totalAccess 161408699 totalHit 76802106 overflow 3032
2925737880000: system.mem_ctrls: mytrace writeOverhead 612330510000 swap 2 write 4062230 2914688
2925737880000: system.mem_ctrls: mytrace2 totalAccess 161784314 totalHit 77044230 overflow 3040
2932476702000: system.mem_ctrls: mytrace writeOverhead 614449850000 swap 2 write 4078709 442240
2932476702000: system.mem_ctrls: mytrace2 totalAccess 162299887 totalHit 77299969 overflow 3055
2934198797000: system.mem_ctrls: mytrace writeOverhead 615108635000 swap 2 write 4083692 2038976
2934198797000: system.mem_ctrls: mytrace2 totalAccess 162439619 totalHit 77359910 overflow 3059
2934833244000: system.mem_ctrls: mytrace writeOverhead 615491995000 swap 2 write 4087669 2081344
2934833244000: system.mem_ctrls: mytrace2 totalAccess 162513400 totalHit 77397931 overflow 3061
2951140583000: system.mem_ctrls: mytrace writeOverhead 620682835000 swap 2 write 4118916 2059200
2951140583000: system.mem_ctrls: mytrace2 totalAccess 163673311 totalHit 77846044 overflow 3105
2952942658000: system.mem_ctrls: mytrace writeOverhead 621323780000 swap 2 write 4123314 779904
2952942658000: system.mem_ctrls: mytrace2 totalAccess 163812027 totalHit 77902359 overflow 3109
2953574192000: system.mem_ctrls: mytrace writeOverhead 621714850000 swap 2 write 4127311 2111168
2953574192000: system.mem_ctrls: mytrace2 totalAccess 163886286 totalHit 77940062 overflow 3111
2959720505000: system.mem_ctrls: mytrace writeOverhead 623619930000 swap 2 write 4141052 2048448
2959720505000: system.mem_ctrls: mytrace2 totalAccess 164341649 totalHit 78153931 overflow 3135
2962440925000: system.mem_ctrls: mytrace writeOverhead 624683065000 swap 2 write 4151773 1797824
2962440925000: system.mem_ctrls: mytrace2 totalAccess 164596569 totalHit 78304741 overflow 3144
2963192865000: system.mem_ctrls: mytrace writeOverhead 625005420000 swap 2 write 4154448 884480
2963192865000: system.mem_ctrls: mytrace2 totalAccess 164665123 totalHit 78337558 overflow 3149
2974110707000: system.mem_ctrls: mytrace writeOverhead 628817795000 swap 2 write 4184316 2099200
2974110707000: system.mem_ctrls: mytrace2 totalAccess 165533247 totalHit 78747404 overflow 3184
2977948449000: system.mem_ctrls: mytrace writeOverhead 630052945000 swap 2 write 4192013 449088
2977948449000: system.mem_ctrls: mytrace2 totalAccess 165806929 totalHit 78854795 overflow 3196
2983517698000: system.mem_ctrls: mytrace writeOverhead 631957980000 swap 2 write 4204617 2467968
2983517698000: system.mem_ctrls: mytrace2 totalAccess 166221302 totalHit 79020778 overflow 3217
2991194220000: system.mem_ctrls: mytrace writeOverhead 633881895000 swap 2 write 4211624 448704
2991194220000: system.mem_ctrls: mytrace2 totalAccess 166683823 totalHit 79173185 overflow 3240
2994033523000: system.mem_ctrls: mytrace writeOverhead 634641260000 swap 2 write 4215901 1675968
2994033523000: system.mem_ctrls: mytrace2 totalAccess 166874708 totalHit 79256190 overflow 3251
2994717520000: system.mem_ctrls: mytrace writeOverhead 634910310000 swap 2 write 4218576 2057216
2994717520000: system.mem_ctrls: mytrace2 totalAccess 166938758 totalHit 79293531 overflow 3255
2996230754000: system.mem_ctrls: mytrace writeOverhead 635552090000 swap 2 write 4223897 2310208
2996230754000: system.mem_ctrls: mytrace2 totalAccess 167076198 totalHit 79358644 overflow 3258
3023552477000: system.mem_ctrls: mytrace writeOverhead 642874100000 swap 2 write 4263142 1540608
3023552477000: system.mem_ctrls: mytrace2 totalAccess 168885825 totalHit 80100062 overflow 3322
3025722014000: system.mem_ctrls: mytrace writeOverhead 643770680000 swap 2 write 4271134 2316352
3025722014000: system.mem_ctrls: mytrace2 totalAccess 169086033 totalHit 80203770 overflow 3329
3027746282000: system.mem_ctrls: mytrace writeOverhead 644548570000 swap 2 write 4279172 2570368
3027746282000: system.mem_ctrls: mytrace2 totalAccess 169275859 totalHit 80318214 overflow 3332
3028353780000: system.mem_ctrls: mytrace writeOverhead 644756590000 swap 2 write 4281867 1486784
3028353780000: system.mem_ctrls: mytrace2 totalAccess 169334679 totalHit 80360938 overflow 3332
3043564670000: system.mem_ctrls: mytrace writeOverhead 648658750000 swap 2 write 4300533 449536
3043564670000: system.mem_ctrls: mytrace2 totalAccess 170304519 totalHit 80738810 overflow 3374
3050003549000: system.mem_ctrls: mytrace writeOverhead 650305940000 swap 2 write 4306943 443392
3050003549000: system.mem_ctrls: mytrace2 totalAccess 170700978 totalHit 80872597 overflow 3386
3053212099000: system.mem_ctrls: mytrace writeOverhead 651134135000 swap 2 write 4310189 2494848
3053212099000: system.mem_ctrls: mytrace2 totalAccess 170898978 totalHit 80940002 overflow 3398
3054531567000: system.mem_ctrls: mytrace writeOverhead 651620355000 swap 2 write 4315303 2557056
3054531567000: system.mem_ctrls: mytrace2 totalAccess 171022182 totalHit 81017670 overflow 3408
3055290838000: system.mem_ctrls: mytrace writeOverhead 651944905000 swap 2 write 4317951 1487616
3055290838000: system.mem_ctrls: mytrace2 totalAccess 171091056 totalHit 81049967 overflow 3411
3059237341000: system.mem_ctrls: mytrace writeOverhead 653422530000 swap 2 write 4334104 3095552
3059237341000: system.mem_ctrls: mytrace2 totalAccess 171464110 totalHit 81286079 overflow 3417
3068337344000: system.mem_ctrls: mytrace writeOverhead 655797175000 swap 2 write 4345462 442112
3068337344000: system.mem_ctrls: mytrace2 totalAccess 172048391 totalHit 81511696 overflow 3446
3069403728000: system.mem_ctrls: mytrace writeOverhead 656072810000 swap 2 write 4346558 3001088
3069403728000: system.mem_ctrls: mytrace2 totalAccess 172114335 totalHit 81534400 overflow 3450
3084872822000: system.mem_ctrls: mytrace writeOverhead 660150250000 swap 2 write 4365381 1823488
3084872822000: system.mem_ctrls: mytrace2 totalAccess 173097980 totalHit 81899279 overflow 3495
3087892193000: system.mem_ctrls: mytrace writeOverhead 661430365000 swap 2 write 4376026 610368
3087892193000: system.mem_ctrls: mytrace2 totalAccess 173372231 totalHit 82030152 overflow 3506
3093188301000: system.mem_ctrls: mytrace writeOverhead 663014265000 swap 2 write 4391373 447936
3093188301000: system.mem_ctrls: mytrace2 totalAccess 173798374 totalHit 82286465 overflow 3519
3096433768000: system.mem_ctrls: mytrace writeOverhead 663847230000 swap 2 write 4394603 442624
3096433768000: system.mem_ctrls: mytrace2 totalAccess 173997322 totalHit 82353018 overflow 3527
3114726687000: system.mem_ctrls: mytrace writeOverhead 668511670000 swap 2 write 4412100 447744
3114726687000: system.mem_ctrls: mytrace2 totalAccess 175119055 totalHit 82728800 overflow 3585
3115315207000: system.mem_ctrls: mytrace writeOverhead 668696575000 swap 2 write 4414593 1530368
3115315207000: system.mem_ctrls: mytrace2 totalAccess 175175768 totalHit 82772019 overflow 3585
3118959372000: system.mem_ctrls: mytrace writeOverhead 670201350000 swap 2 write 4427919 2112000
3118959372000: system.mem_ctrls: mytrace2 totalAccess 175509989 totalHit 82944348 overflow 3601
3125679527000: system.mem_ctrls: mytrace writeOverhead 672093200000 swap 2 write 4442775 1479680
3125679527000: system.mem_ctrls: mytrace2 totalAccess 176006472 totalHit 83206135 overflow 3617
3138420504000: system.mem_ctrls: mytrace writeOverhead 675398980000 swap 2 write 4456015 16364928
[...]
151020363467000: system.mem_ctrls: mytrace writeOverhead 34278686055000 swap 6033381 write 190576875 1213120
151020363467000: system.mem_ctrls: mytrace2 totalAccess 10216094897 totalHit 5300064221 overflow 155612
151021120829000: system.mem_ctrls: mytrace writeOverhead 34279001400000 swap 6033406 write 190579527 1419264
151021120829000: system.mem_ctrls: mytrace2 totalAccess 10216163463 totalHit 5300097452 overflow 155614
151024142510000: system.mem_ctrls: mytrace writeOverhead 34280248210000 swap 6033452 write 190590203 1744576
151024142510000: system.mem_ctrls: mytrace2 totalAccess 10216436272 totalHit 5300231124 overflow 155621
simplex iterations         : 333107
151885356459000: system.mem_ctrls: mytrace writeOverhead 34340918635000 swap 6033481 write 190599099 5125696
151885356459000: system.mem_ctrls: mytrace2 totalAccess 10264214936 totalHit 5335964296 overflow 155625
152285876116000: system.mem_ctrls: mytrace writeOverhead 34583129650000 swap 6033527 write 196148058 11681280
152285876116000: system.mem_ctrls: mytrace2 totalAccess 10332461574 totalHit 5400982757 overflow 155774
objective value            : 6930121656
152674450502000: system.mem_ctrls: mytrace writeOverhead 34597797270000 swap 6034756 write 196173203 18350720
152674450502000: system.mem_ctrls: mytrace2 totalAccess 10358348503 totalHit 5424206338 overflow 155777
152702348276000: system.mem_ctrls: mytrace writeOverhead 34600635320000 swap 6034756 write 196174144 2211584
152702348276000: system.mem_ctrls: mytrace2 totalAccess 10359991349 totalHit 5425290996 overflow 155777
153393637503000: system.mem_ctrls: mytrace writeOverhead 34650848245000 swap 6034769 write 196186358 2046976
153393637503000: system.mem_ctrls: mytrace2 totalAccess 10400520648 totalHit 5455899304 overflow 155781
153428347935000: system.mem_ctrls: mytrace writeOverhead 34654411250000 swap 6034770 write 196218747 5117696
153428347935000: system.mem_ctrls: mytrace2 totalAccess 10402788926 totalHit 5457730036 overflow 155789
erased arcs                : 5327571
153726884085000: system.mem_ctrls: mytrace writeOverhead 34682653820000 swap 6034770 write 196534367 2153344
153726884085000: system.mem_ctrls: mytrace2 totalAccess 10425605462 totalHit 5477752637 overflow 155833
157893454142000: system.mem_ctrls: mytrace writeOverhead 34810927490000 swap 6034770 write 196556376 19490560
157893454142000: system.mem_ctrls: mytrace2 totalAccess 10706698575 totalHit 5733392970 overflow 155841
158052042403000: system.mem_ctrls: mytrace writeOverhead 34815873620000 swap 6034770 write 196559192 19591552
158052042403000: system.mem_ctrls: mytrace2 totalAccess 10717351849 totalHit 5743081856 overflow 155842
172495026825000: system.mem_ctrls: mytrace writeOverhead 35250497725000 swap 6034770 write 196594095 18976832
172495026825000: system.mem_ctrls: mytrace2 totalAccess 11682952169 totalHit 6622076740 overflow 155852
new implicit arcs          : 27187
active arcs                : 241538
172510933455000: system.mem_ctrls: mytrace writeOverhead 35255253135000 swap 6034770 write 196630030 2822016
172510933455000: system.mem_ctrls: mytrace2 totalAccess 11684126159 totalHit 6622628566 overflow 155883
172512418420000: system.mem_ctrls: mytrace writeOverhead 35255864630000 swap 6034770 write 196635378 2253248
172512418420000: system.mem_ctrls: mytrace2 totalAccess 11684261033 totalHit 6622696446 overflow 155886
172515380588000: system.mem_ctrls: mytrace writeOverhead 35257064475000 swap 6034770 write 196646063 1505472
172515380588000: system.mem_ctrls: mytrace2 totalAccess 11684529156 totalHit 6622833760 overflow 155890
172516882788000: system.mem_ctrls: mytrace writeOverhead 35257673950000 swap 6034770 write 196651408 3303104
172516882788000: system.mem_ctrls: mytrace2 totalAccess 11684664305 totalHit 6622901355 overflow 155890
172522306500000: system.mem_ctrls: mytrace writeOverhead 35259407515000 swap 6034770 write 196661710 2522496
172522306500000: system.mem_ctrls: mytrace2 totalAccess 11685065789 totalHit 6623062230 overflow 155898
172549761917000: system.mem_ctrls: mytrace writeOverhead 35266151670000 swap 6034770 write 196675210 2093056
172549761917000: system.mem_ctrls: mytrace2 totalAccess 11686763231 totalHit 6623552643 overflow 155919
172555218602000: system.mem_ctrls: mytrace writeOverhead 35267411035000 swap 6034770 write 196676319 445184
172555218602000: system.mem_ctrls: mytrace2 totalAccess 11687087315 totalHit 6623637422 overflow 155924
173230871060000: system.mem_ctrls: mytrace writeOverhead 35416888830000 swap 6034770 write 196689785 1142848
173230871060000: system.mem_ctrls: mytrace2 totalAccess 11726376867 totalHit 6633175523 overflow 155952
173261218046000: system.mem_ctrls: mytrace writeOverhead 35423939345000 swap 6034770 write 196696183 1249216
173261218046000: system.mem_ctrls: mytrace2 totalAccess 11728194113 totalHit 6633649432 overflow 155960
174032967927000: system.mem_ctrls: mytrace writeOverhead 35595596925000 swap 6034770 write 196729828 2535680
174032967927000: system.mem_ctrls: mytrace2 totalAccess 11773239387 totalHit 6644713155 overflow 155992
174033709725000: system.mem_ctrls: mytrace writeOverhead 35595900060000 swap 6034770 write 196732471 1343872
174033709725000: system.mem_ctrls: mytrace2 totalAccess 11773306677 totalHit 6644746985 overflow 155993
174039655686000: system.mem_ctrls: mytrace writeOverhead 35598319270000 swap 6034770 write 196753861 3323328
174039655686000: system.mem_ctrls: mytrace2 totalAccess 11773844635 totalHit 6645020095 overflow 156003
simplex iterations         : 333437
174072707342000: system.mem_ctrls: mytrace writeOverhead 35600550525000 swap 6034770 write 196758058 5248320
174072707342000: system.mem_ctrls: mytrace2 totalAccess 11775626499 totalHit 6646391790 overflow 156003
174090706937000: system.mem_ctrls: mytrace writeOverhead 35611347195000 swap 6034770 write 197000322 9224640
174090706937000: system.mem_ctrls: mytrace2 totalAccess 11778643899 totalHit 6649232197 overflow 156009
174092049233000: system.mem_ctrls: mytrace writeOverhead 35611976685000 swap 6034770 write 197006033 9919104
174092049233000: system.mem_ctrls: mytrace2 totalAccess 11778779294 totalHit 6649302479 overflow 156009
objective value            : 6930121650
174114425079000: system.mem_ctrls: mytrace writeOverhead 35614497405000 swap 6034770 write 197027741 3247424
174114425079000: system.mem_ctrls: mytrace2 totalAccess 11780412865 totalHit 6650642504 overflow 156009
174115626370000: system.mem_ctrls: mytrace writeOverhead 35615221355000 swap 6034770 write 197037491 2253696
174115626370000: system.mem_ctrls: mytrace2 totalAccess 11780557038 totalHit 6650736307 overflow 156015
174119050837000: system.mem_ctrls: mytrace writeOverhead 35615895095000 swap 6034770 write 197046791 859008
174119050837000: system.mem_ctrls: mytrace2 totalAccess 11780819252 totalHit 6650948381 overflow 156019
174121298655000: system.mem_ctrls: mytrace writeOverhead 35617353465000 swap 6034770 write 197076790 2062592
174121298655000: system.mem_ctrls: mytrace2 totalAccess 11781197898 totalHit 6651289643 overflow 156029
erased arcs                : 27182
177707324554000: system.mem_ctrls: mytrace writeOverhead 35747105705000 swap 6034770 write 197417613 20340544
177707324554000: system.mem_ctrls: mytrace2 totalAccess 12026076209 totalHit 6873292160 overflow 156094
178168522296000: system.mem_ctrls: mytrace writeOverhead 35762311210000 swap 6034770 write 197446129 18795968
178168522296000: system.mem_ctrls: mytrace2 totalAccess 12057150294 totalHit 6901565810 overflow 156097
178202223166000: system.mem_ctrls: mytrace writeOverhead 35763711315000 swap 6034770 write 197454644 22198592
178202223166000: system.mem_ctrls: mytrace2 totalAccess 12059448288 totalHit 6903655891 overflow 156099
178511615259000: system.mem_ctrls: mytrace writeOverhead 35774472080000 swap 6034770 write 197486312 24079040
178511615259000: system.mem_ctrls: mytrace2 totalAccess 12080356843 totalHit 6922680610 overflow 156108
178701357243000: system.mem_ctrls: mytrace writeOverhead 35781297885000 swap 6034770 write 197511022 20474304
178701357243000: system.mem_ctrls: mytrace2 totalAccess 12093193841 totalHit 6934361205 overflow 156113
178730076316000: system.mem_ctrls: mytrace writeOverhead 35782303630000 swap 6034770 write 197514234 25772608
178730076316000: system.mem_ctrls: mytrace2 totalAccess 12095133806 totalHit 6936126920 overflow 156113
178822500254000: system.mem_ctrls: mytrace writeOverhead 35785408075000 swap 6034770 write 197521622 26231168
178822500254000: system.mem_ctrls: mytrace2 totalAccess 12101362936 totalHit 6941796877 overflow 156113
178887449260000: system.mem_ctrls: mytrace writeOverhead 35787593450000 swap 6034770 write 197526740 26546688
178887449260000: system.mem_ctrls: mytrace2 totalAccess 12105740244 totalHit 6945780480 overflow 156115
178918675736000: system.mem_ctrls: mytrace writeOverhead 35788850710000 swap 6034770 write 197533661 26949952
178918675736000: system.mem_ctrls: mytrace2 totalAccess 12107864166 totalHit 6947711907 overflow 156118
179004898373000: system.mem_ctrls: mytrace writeOverhead 35792001070000 swap 6034770 write 197545801 27639104
179004898373000: system.mem_ctrls: mytrace2 totalAccess 12113696148 totalHit 6953016973 overflow 156122
179589666509000: system.mem_ctrls: mytrace writeOverhead 35810687485000 swap 6034770 write 197570186 28901184
179589666509000: system.mem_ctrls: mytrace2 totalAccess 12152918587 totalHit 6988709219 overflow 156128
179748009375000: system.mem_ctrls: mytrace writeOverhead 35815532315000 swap 6034770 write 197572006 2730176
179748009375000: system.mem_ctrls: mytrace2 totalAccess 12163522477 totalHit 6998359871 overflow 156129
179880724019000: system.mem_ctrls: mytrace writeOverhead 35819822425000 swap 6034770 write 197578565 29380736
179880724019000: system.mem_ctrls: mytrace2 totalAccess 12172429604 totalHit 7006465206 overflow 156133
179975875701000: system.mem_ctrls: mytrace writeOverhead 35823135525000 swap 6034770 write 197588938 30021056
179975875701000: system.mem_ctrls: mytrace2 totalAccess 12178838784 totalHit 7012298997 overflow 156136
179977134353000: system.mem_ctrls: mytrace writeOverhead 35823306800000 swap 6034770 write 197592029 30225152
179977134353000: system.mem_ctrls: mytrace2 totalAccess 12178935284 totalHit 7012387207 overflow 156137
180127364985000: system.mem_ctrls: mytrace writeOverhead 35828123715000 swap 6034770 write 197598607 30606400
180127364985000: system.mem_ctrls: mytrace2 totalAccess 12189015238 totalHit 7021559849 overflow 156139
180140514166000: system.mem_ctrls: mytrace writeOverhead 35828663355000 swap 6034770 write 197601749 30796864
180140514166000: system.mem_ctrls: mytrace2 totalAccess 12189908373 totalHit 7022371818 overflow 156140
180141144623000: system.mem_ctrls: mytrace writeOverhead 35828753595000 swap 6034770 write 197603365 30879488
180141144623000: system.mem_ctrls: mytrace2 totalAccess 12189957069 totalHit 7022416040 overflow 156140
180407065127000: system.mem_ctrls: mytrace writeOverhead 35837924705000 swap 6034770 write 197628969 32400896
180407065127000: system.mem_ctrls: mytrace2 totalAccess 12207866995 totalHit 7038710879 overflow 156154
180407691532000: system.mem_ctrls: mytrace writeOverhead 35838018425000 swap 6034770 write 197630651 32488576
180407691532000: system.mem_ctrls: mytrace2 totalAccess 12207916027 totalHit 7038755295 overflow 156154
180787229313000: system.mem_ctrls: mytrace writeOverhead 35850849390000 swap 6034771 write 197662365 34418944
180787229313000: system.mem_ctrls: mytrace2 totalAccess 12233471277 totalHit 7062013666 overflow 156170
180795357677000: system.mem_ctrls: mytrace writeOverhead 35851181355000 swap 6034771 write 197664203 22712896
180795357677000: system.mem_ctrls: mytrace2 totalAccess 12234023830 totalHit 7062515800 overflow 156172
181021083826000: system.mem_ctrls: mytrace writeOverhead 35858638865000 swap 6034771 write 197678750 35375168
181021083826000: system.mem_ctrls: mytrace2 totalAccess 12249205963 totalHit 7076329975 overflow 156174
193226817463000: system.mem_ctrls: mytrace writeOverhead 36225093075000 swap 6034771 write 197702240 18942016
193226817463000: system.mem_ctrls: mytrace2 totalAccess 13064959572 totalHit 7819004075 overflow 156179
new implicit arcs          : 272998
active arcs                : 487354
193279182962000: system.mem_ctrls: mytrace writeOverhead 36255883720000 swap 6034771 write 198245461 442368
193279182962000: system.mem_ctrls: mytrace2 totalAccess 13072375361 totalHit 7825051569 overflow 156436
193289711229000: system.mem_ctrls: mytrace writeOverhead 36258776100000 swap 6034771 write 198258917 2544128
193289711229000: system.mem_ctrls: mytrace2 totalAccess 13073047867 totalHit 7825285511 overflow 156456
193291195058000: system.mem_ctrls: mytrace writeOverhead 36259388120000 swap 6034771 write 198264257 2218688
193291195058000: system.mem_ctrls: mytrace2 totalAccess 13073182942 totalHit 7825353119 overflow 156458
193292682862000: system.mem_ctrls: mytrace writeOverhead 36259995005000 swap 6034771 write 198269592 1597440
193292682862000: system.mem_ctrls: mytrace2 totalAccess 13073317572 totalHit 7825421155 overflow 156460
193294162212000: system.mem_ctrls: mytrace writeOverhead 36260583770000 swap 6034771 write 198274948 3084288
193294162212000: system.mem_ctrls: mytrace2 totalAccess 13073450680 totalHit 7825490882 overflow 156463
193306892839000: system.mem_ctrls: mytrace writeOverhead 36264440485000 swap 6034771 write 198296544 2487808
193306892839000: system.mem_ctrls: mytrace2 totalAccess 13074331476 totalHit 7825821886 overflow 156481
193318430967000: system.mem_ctrls: mytrace writeOverhead 36267550395000 swap 6034771 write 198308806 903424
193318430967000: system.mem_ctrls: mytrace2 totalAccess 13075066812 totalHit 7826063766 overflow 156499
193321393408000: system.mem_ctrls: mytrace writeOverhead 36268747235000 swap 6034771 write 198319479 2903872
193321393408000: system.mem_ctrls: mytrace2 totalAccess 13075334584 totalHit 7826201335 overflow 156503
193332302081000: system.mem_ctrls: mytrace writeOverhead 36271905600000 swap 6034771 write 198334899 446784
193332302081000: system.mem_ctrls: mytrace2 totalAccess 13076071955 totalHit 7826466718 overflow 156519
193347072952000: system.mem_ctrls: mytrace writeOverhead 36275818150000 swap 6034771 write 198348070 2563072
193347072952000: system.mem_ctrls: mytrace2 totalAccess 13077006592 totalHit 7826756825 overflow 156537
193348565241000: system.mem_ctrls: mytrace writeOverhead 36276434155000 swap 6034771 write 198353405 2374720
193348565241000: system.mem_ctrls: mytrace2 totalAccess 13077141984 totalHit 7826824072 overflow 156540
193350782411000: system.mem_ctrls: mytrace writeOverhead 36277328690000 swap 6034771 write 198361425 3108928
193350782411000: system.mem_ctrls: mytrace2 totalAccess 13077342320 totalHit 7826927878 overflow 156546
193536441415000: system.mem_ctrls: mytrace writeOverhead 36321831925000 swap 6034771 write 198408272 2645312
193536441415000: system.mem_ctrls: mytrace2 totalAccess 13088573558 totalHit 7829750174 overflow 156611
193537196014000: system.mem_ctrls: mytrace writeOverhead 36322142615000 swap 6034771 write 198410944 1957376
193537196014000: system.mem_ctrls: mytrace2 totalAccess 13088641679 totalHit 7829783415 overflow 156611
193548526183000: system.mem_ctrls: mytrace writeOverhead 36325178810000 swap 6034771 write 198421569 1225472
193548526183000: system.mem_ctrls: mytrace2 totalAccess 13089369596 totalHit 7830019620 overflow 156643
193647042545000: system.mem_ctrls: mytrace writeOverhead 36348037735000 swap 6034771 write 198430622 2715968
193647042545000: system.mem_ctrls: mytrace2 totalAccess 13095203363 totalHit 7831378005 overflow 156664
193648245066000: system.mem_ctrls: mytrace writeOverhead 36348763815000 swap 6034771 write 198438591 2828160
193648245066000: system.mem_ctrls: mytrace2 totalAccess 13095347221 totalHit 7831457864 overflow 156668
194866643248000: system.mem_ctrls: mytrace writeOverhead 36627012280000 swap 6034771 write 198453275 1108608
194866643248000: system.mem_ctrls: mytrace2 totalAccess 13166834551 totalHit 7847447891 overflow 156678
194869617537000: system.mem_ctrls: mytrace writeOverhead 36628205075000 swap 6034771 write 198464011 3052288
194869617537000: system.mem_ctrls: mytrace2 totalAccess 13167102245 totalHit 7847586065 overflow 156682
194870362239000: system.mem_ctrls: mytrace writeOverhead 36628508275000 swap 6034771 write 198466680 2081984
194870362239000: system.mem_ctrls: mytrace2 totalAccess 13167169772 totalHit 7847619876 overflow 156682
simplex iterations         : 334353
194976442307000: system.mem_ctrls: mytrace writeOverhead 36653226585000 swap 6034771 write 198955489 5072960
194976442307000: system.mem_ctrls: mytrace2 totalAccess 13177076745 totalHit 7856582762 overflow 156775
194980950806000: system.mem_ctrls: mytrace writeOverhead 36655270970000 swap 6034771 write 198975616 18518144
194980950806000: system.mem_ctrls: mytrace2 totalAccess 13177537726 totalHit 7856842770 overflow 156779
objective value            : 6930121646
195016285311000: system.mem_ctrls: mytrace writeOverhead 36657214130000 swap 6034771 write 198987340 18320576
195016285311000: system.mem_ctrls: mytrace2 totalAccess 13179962751 totalHit 7858991475 overflow 156782
195016893323000: system.mem_ctrls: mytrace writeOverhead 36657570765000 swap 6034771 write 198992032 18465920
195016893323000: system.mem_ctrls: mytrace2 totalAccess 13180034574 totalHit 7859037176 overflow 156782
195018122161000: system.mem_ctrls: mytrace writeOverhead 36658152255000 swap 6034771 write 199000091 18715584
195018122161000: system.mem_ctrls: mytrace2 totalAccess 13180166760 totalHit 7859129445 overflow 156785
195059335077000: system.mem_ctrls: mytrace writeOverhead 36661263605000 swap 6034771 write 199034968 682688
195059335077000: system.mem_ctrls: mytrace2 totalAccess 13182907523 totalHit 7861547580 overflow 156805
erased arcs                : 272992
new implicit arcs          : 308
active arcs                : 214670
214313641002000: system.mem_ctrls: mytrace writeOverhead 37297148025000 swap 6034771 write 199361625 461696
214313641002000: system.mem_ctrls: mytrace2 totalAccess 14473670721 totalHit 9028111621 overflow 156881
214479132964000: system.mem_ctrls: mytrace writeOverhead 37334363160000 swap 6034771 write 199377551 2919168
214479132964000: system.mem_ctrls: mytrace2 totalAccess 14483414270 totalHit 9030575406 overflow 156888
simplex iterations         : 334402
214626895998000: system.mem_ctrls: mytrace writeOverhead 37364157825000 swap 6034771 write 199417242 5207744
214626895998000: system.mem_ctrls: mytrace2 totalAccess 14492192689 totalHit 9033794384 overflow 156902
214642489943000: system.mem_ctrls: mytrace writeOverhead 37373572505000 swap 6034771 write 199631124 9688896
214642489943000: system.mem_ctrls: mytrace2 totalAccess 14494836885 totalHit 9036300930 overflow 156905
214643159098000: system.mem_ctrls: mytrace writeOverhead 37373887425000 swap 6034771 write 199633969 8778304
214643159098000: system.mem_ctrls: mytrace2 totalAccess 14494904576 totalHit 9036335988 overflow 156905
214643826271000: system.mem_ctrls: mytrace writeOverhead 37374202925000 swap 6034771 write 199636837 18119360
214643826271000: system.mem_ctrls: mytrace2 totalAccess 14494972285 totalHit 9036371212 overflow 156906
214646350015000: system.mem_ctrls: mytrace writeOverhead 37375304920000 swap 6034771 write 199648252 18451712
214646350015000: system.mem_ctrls: mytrace2 totalAccess 14495230481 totalHit 9036524315 overflow 156907
objective value            : 6930121644
checksum                   : 19565010
done
214666579821000: system.mem_ctrls: mytrace writeOverhead 37377991040000 swap 6034771 write 199685552 3313664
214666579821000: system.mem_ctrls: mytrace2 totalAccess 14496845855 totalHit 9037927215 overflow 156924
Exiting @ tick 214725132090000 because exiting with last active thread context
