gem5 Simulator System.  http://gem5.org
gem5 is copyrighted software; use the --copyright option for details.

gem5 compiled Apr 21 2020 11:36:56
gem5 started Apr 21 2020 18:11:45
gem5 executing on alkaid-desktop, pid 25919
command line: build/X86/gem5.opt --debug-flags=MYTRACE -r --stdout-file=simout configs/example/se.py -n 1 --caches --cpu-type=TimingSimpleCPU --mem-size=2GB --mem-channels=1 -c ./434.zeusmp/exe/zeusmp_base.amd64-m64-gcc42-nn

Global frequency set at 1000000000000 ticks per second
warn: DRAM device capacity (8192 Mbytes) does not match the address range assigned (2048 Mbytes)
0: system.remote_gdb: listening for remote gdb on port 7000
**** REAL SIMULATION ****
info: Entering event queue @ 0.  Starting simulation...
info: Increasing stack size by one page.
warn: ignoring syscall access(...)
warn: ignoring syscall rt_sigaction(...)
      (further warnings will be suppressed)
1650268000: system.mem_ctrls: mytrace writeOverhead 832460000 swap 9 write 9136 357096512
1650268000: system.mem_ctrls: mytrace2 totalAccess 151722 totalHit 76495 overflow 1 evictTime 0
2349113000: system.mem_ctrls: mytrace writeOverhead 1360530000 swap 9 write 14135 348486656
2349113000: system.mem_ctrls: mytrace2 totalAccess 238103 totalHit 110088 overflow 1 evictTime 0
3046554000: system.mem_ctrls: mytrace writeOverhead 1887575000 swap 9 write 19134 190121984
3046554000: system.mem_ctrls: mytrace2 totalAccess 324388 totalHit 143783 overflow 1 evictTime 0
3767215000: system.mem_ctrls: mytrace writeOverhead 2428680000 swap 9 write 24130 357502272
3767215000: system.mem_ctrls: mytrace2 totalAccess 411823 totalHit 176304 overflow 1 evictTime 0
16595800000: system.mem_ctrls: mytrace writeOverhead 12041880000 swap 17 write 114112 355022592
16595800000: system.mem_ctrls: mytrace2 totalAccess 1972596 totalHit 775375 overflow 1 evictTime 0
17193693000: system.mem_ctrls: mytrace writeOverhead 12391165000 swap 18 write 119105 323596928
17193693000: system.mem_ctrls: mytrace2 totalAccess 2044249 totalHit 823665 overflow 1 evictTime 0
17787360000: system.mem_ctrls: mytrace writeOverhead 12732375000 swap 18 write 124100 304910976
17787360000: system.mem_ctrls: mytrace2 totalAccess 2115280 totalHit 872565 overflow 1 evictTime 0
18971946000: system.mem_ctrls: mytrace writeOverhead 13408620000 swap 18 write 134090 324004352
18971946000: system.mem_ctrls: mytrace2 totalAccess 2256872 totalHit 970835 overflow 1 evictTime 0
21930393000: system.mem_ctrls: mytrace writeOverhead 15102410000 swap 21 write 159066 230601216
21930393000: system.mem_ctrls: mytrace2 totalAccess 2611070 totalHit 1216432 overflow 1 evictTime 0
22521032000: system.mem_ctrls: mytrace writeOverhead 15444720000 swap 21 write 164060 306007040
22521032000: system.mem_ctrls: mytrace2 totalAccess 2682103 totalHit 1265323 overflow 1 evictTime 0
24292211000: system.mem_ctrls: mytrace writeOverhead 16473870000 swap 22 write 179045 231144704
24292211000: system.mem_ctrls: mytrace2 totalAccess 2895433 totalHit 1411826 overflow 1 evictTime 0
24885496000: system.mem_ctrls: mytrace writeOverhead 16813290000 swap 22 write 184040 268921024
24885496000: system.mem_ctrls: mytrace2 totalAccess 2966343 totalHit 1460846 overflow 1 evictTime 0
26071468000: system.mem_ctrls: mytrace writeOverhead 17491060000 swap 22 write 194030 212746304
26071468000: system.mem_ctrls: mytrace2 totalAccess 3108052 totalHit 1559015 overflow 1 evictTime 0
26665022000: system.mem_ctrls: mytrace writeOverhead 17829270000 swap 22 write 199025 325716480
26665022000: system.mem_ctrls: mytrace2 totalAccess 3178826 totalHit 1608174 overflow 1 evictTime 0
30208355000: system.mem_ctrls: mytrace writeOverhead 19851960000 swap 22 write 228996 326571136
30208355000: system.mem_ctrls: mytrace2 totalAccess 3603059 totalHit 1903588 overflow 1 evictTime 0
31984381000: system.mem_ctrls: mytrace writeOverhead 20881410000 swap 23 write 243981 214058368
31984381000: system.mem_ctrls: mytrace2 totalAccess 3816400 totalHit 2050081 overflow 1 evictTime 0
32578556000: system.mem_ctrls: mytrace writeOverhead 21230570000 swap 23 write 248976 289480896
32578556000: system.mem_ctrls: mytrace2 totalAccess 3887937 totalHit 2098468 overflow 1 evictTime 0
33170158000: system.mem_ctrls: mytrace writeOverhead 21576605000 swap 24 write 253971 233143040
33170158000: system.mem_ctrls: mytrace2 totalAccess 3959343 totalHit 2147021 overflow 1 evictTime 0
36721118000: system.mem_ctrls: mytrace writeOverhead 23611675000 swap 25 write 283941 252804864
36721118000: system.mem_ctrls: mytrace2 totalAccess 4384604 totalHit 2441420 overflow 1 evictTime 0
37905773000: system.mem_ctrls: mytrace writeOverhead 24293480000 swap 25 write 293931 271893760
37905773000: system.mem_ctrls: mytrace2 totalAccess 4526643 totalHit 2539264 overflow 1 evictTime 0
40860243000: system.mem_ctrls: mytrace writeOverhead 25984645000 swap 26 write 318907 216059264
40860243000: system.mem_ctrls: mytrace2 totalAccess 4880542 totalHit 2785112 overflow 1 evictTime 0
41452375000: system.mem_ctrls: mytrace writeOverhead 26327880000 swap 27 write 323903 235018048
41452375000: system.mem_ctrls: mytrace2 totalAccess 4951605 totalHit 2833987 overflow 1 evictTime 0
43226108000: system.mem_ctrls: mytrace writeOverhead 27353270000 swap 27 write 338887 235433984
43226108000: system.mem_ctrls: mytrace2 totalAccess 5164773 totalHit 2980631 overflow 1 evictTime 0
46186952000: system.mem_ctrls: mytrace writeOverhead 29043365000 swap 27 write 363863 292579072
46186952000: system.mem_ctrls: mytrace2 totalAccess 5518701 totalHit 3226418 overflow 1 evictTime 0
47367459000: system.mem_ctrls: mytrace writeOverhead 29729030000 swap 27 write 373853 292863424
47367459000: system.mem_ctrls: mytrace2 totalAccess 5661046 totalHit 3323946 overflow 1 evictTime 0
47961337000: system.mem_ctrls: mytrace writeOverhead 30071685000 swap 27 write 378847 236529600
47961337000: system.mem_ctrls: mytrace2 totalAccess 5732181 totalHit 3372733 overflow 1 evictTime 0
48555014000: system.mem_ctrls: mytrace writeOverhead 30411440000 swap 27 write 383842 217842624
48555014000: system.mem_ctrls: mytrace2 totalAccess 5803092 totalHit 3421760 overflow 1 evictTime 0
50336194000: system.mem_ctrls: mytrace writeOverhead 31431080000 swap 28 write 398827 312358080
50336194000: system.mem_ctrls: mytrace2 totalAccess 6015690 totalHit 3568995 overflow 1 evictTime 0
51519900000: system.mem_ctrls: mytrace writeOverhead 32118975000 swap 31 write 408817 199724096
51519900000: system.mem_ctrls: mytrace2 totalAccess 6158089 totalHit 3666531 overflow 1 evictTime 0
52111765000: system.mem_ctrls: mytrace writeOverhead 32457265000 swap 31 write 413812 256235008
52111765000: system.mem_ctrls: mytrace2 totalAccess 6228895 totalHit 3715655 overflow 1 evictTime 0
53293193000: system.mem_ctrls: mytrace writeOverhead 33131805000 swap 31 write 423802 237710720
53293193000: system.mem_ctrls: mytrace2 totalAccess 6370351 totalHit 3814079 overflow 1 evictTime 0
55068459000: system.mem_ctrls: mytrace writeOverhead 34144135000 swap 31 write 438787 294581440
55068459000: system.mem_ctrls: mytrace2 totalAccess 6582478 totalHit 3961776 overflow 1 evictTime 0
55660511000: system.mem_ctrls: mytrace writeOverhead 34485985000 swap 31 write 443782 257085440
55660511000: system.mem_ctrls: mytrace2 totalAccess 6653570 totalHit 4010615 overflow 1 evictTime 0
57435876000: system.mem_ctrls: mytrace writeOverhead 35504440000 swap 31 write 458767 295141632
57435876000: system.mem_ctrls: mytrace2 totalAccess 6866304 totalHit 4157700 overflow 1 evictTime 0
58026859000: system.mem_ctrls: mytrace writeOverhead 35842640000 swap 31 write 463762 276458688
58026859000: system.mem_ctrls: mytrace2 totalAccess 6937110 totalHit 4206828 overflow 1 evictTime 0
59212362000: system.mem_ctrls: mytrace writeOverhead 36518120000 swap 32 write 473752 201437888
59212362000: system.mem_ctrls: mytrace2 totalAccess 7078479 totalHit 4305361 overflow 1 evictTime 0
info: Increasing stack size by one page.
59803365000: system.mem_ctrls: mytrace writeOverhead 36825720000 swap 134 write 478707 248568960
59803365000: system.mem_ctrls: mytrace2 totalAccess 7146487 totalHit 4357421 overflow 2 evictTime 0
77055028000: system.mem_ctrls: mytrace writeOverhead 46758155000 swap 140 write 663705 305020864
77055028000: system.mem_ctrls: mytrace2 totalAccess 9558634 totalHit 6384936 overflow 2 evictTime 0
218882460000: system.mem_ctrls: mytrace writeOverhead 53945890000 swap 261 write 796528 348727168
218882460000: system.mem_ctrls: mytrace2 totalAccess 11311265 totalHit 7857417 overflow 3 evictTime 0
220822206000: system.mem_ctrls: mytrace writeOverhead 54894600000 swap 261 write 803773 359934464
220822206000: system.mem_ctrls: mytrace2 totalAccess 11476315 totalHit 7910314 overflow 3 evictTime 0
221784090000: system.mem_ctrls: mytrace writeOverhead 55370070000 swap 261 write 807425 351882176
221784090000: system.mem_ctrls: mytrace2 totalAccess 11558922 totalHit 7936910 overflow 3 evictTime 0
223720496000: system.mem_ctrls: mytrace writeOverhead 56322590000 swap 261 write 814748 359550976
223720496000: system.mem_ctrls: mytrace2 totalAccess 11724273 totalHit 7990129 overflow 3 evictTime 0
228536345000: system.mem_ctrls: mytrace writeOverhead 58695445000 swap 261 write 833045 363081792
228536345000: system.mem_ctrls: mytrace2 totalAccess 12136465 totalHit 8124287 overflow 3 evictTime 0
230447322000: system.mem_ctrls: mytrace writeOverhead 59644750000 swap 261 write 840380 344358272
230447322000: system.mem_ctrls: mytrace2 totalAccess 12301598 totalHit 8177823 overflow 3 evictTime 0
234849557000: system.mem_ctrls: mytrace writeOverhead 61893910000 swap 261 write 859520 199859904
234849557000: system.mem_ctrls: mytrace2 totalAccess 12703187 totalHit 8329307 overflow 3 evictTime 0
239111263000: system.mem_ctrls: mytrace writeOverhead 62903535000 swap 436 write 874871 384325312
239111263000: system.mem_ctrls: mytrace2 totalAccess 12998424 totalHit 8560971 overflow 3 evictTime 0
244551044000: system.mem_ctrls: mytrace writeOverhead 64063000000 swap 514 write 891108 385729152
244551044000: system.mem_ctrls: mytrace2 totalAccess 13347812 totalHit 8823211 overflow 3 evictTime 0
246355855000: system.mem_ctrls: mytrace writeOverhead 64424575000 swap 515 write 896524 386165440
246355855000: system.mem_ctrls: mytrace2 totalAccess 13461764 totalHit 8912544 overflow 3 evictTime 0
248156441000: system.mem_ctrls: mytrace writeOverhead 64766315000 swap 515 write 901920 405421376
248156441000: system.mem_ctrls: mytrace2 totalAccess 13573993 totalHit 9003439 overflow 3 evictTime 0
249066363000: system.mem_ctrls: mytrace writeOverhead 64966610000 swap 515 write 904627 405675904
249066363000: system.mem_ctrls: mytrace2 totalAccess 13632776 totalHit 9046270 overflow 3 evictTime 0
251779606000: system.mem_ctrls: mytrace writeOverhead 65533165000 swap 515 write 912750 368709056
251779606000: system.mem_ctrls: mytrace2 totalAccess 13805858 totalHit 9178077 overflow 3 evictTime 0
255390096000: system.mem_ctrls: mytrace writeOverhead 66279835000 swap 516 write 923578 388401472
255390096000: system.mem_ctrls: mytrace2 totalAccess 14035925 totalHit 9354544 overflow 3 evictTime 0
256292685000: system.mem_ctrls: mytrace writeOverhead 66448855000 swap 516 write 926260 407483264
256292685000: system.mem_ctrls: mytrace2 totalAccess 14091848 totalHit 9400045 overflow 3 evictTime 0
261722209000: system.mem_ctrls: mytrace writeOverhead 67615545000 swap 554 write 942507 389982976
261722209000: system.mem_ctrls: mytrace2 totalAccess 14441499 totalHit 9661126 overflow 3 evictTime 0
263523854000: system.mem_ctrls: mytrace writeOverhead 67973955000 swap 568 write 947913 390421248
263523854000: system.mem_ctrls: mytrace2 totalAccess 14555278 totalHit 9750873 overflow 3 evictTime 0
265323762000: system.mem_ctrls: mytrace writeOverhead 68319650000 swap 586 write 953319 390928832
265323762000: system.mem_ctrls: mytrace2 totalAccess 14668043 totalHit 9841731 overflow 3 evictTime 0
266230264000: system.mem_ctrls: mytrace writeOverhead 68522850000 swap 591 write 956027 409918784
266230264000: system.mem_ctrls: mytrace2 totalAccess 14727073 totalHit 9884454 overflow 3 evictTime 0
271656901000: system.mem_ctrls: mytrace writeOverhead 69663215000 swap 628 write 972242 411300864
271656901000: system.mem_ctrls: mytrace2 totalAccess 15074202 totalHit 10147783 overflow 3 evictTime 0
272771980000: system.mem_ctrls: mytrace writeOverhead 69867745000 swap 663 write 974623 229892608
272771980000: system.mem_ctrls: mytrace2 totalAccess 15133662 totalHit 10188189 overflow 3 evictTime 0
274122142000: system.mem_ctrls: mytrace writeOverhead 70082165000 swap 666 write 976467 248861760
274122142000: system.mem_ctrls: mytrace2 totalAccess 15193898 totalHit 10222761 overflow 3 evictTime 0
276819754000: system.mem_ctrls: mytrace writeOverhead 70505165000 swap 666 write 980186 230341632
276819754000: system.mem_ctrls: mytrace2 totalAccess 15313691 totalHit 10292699 overflow 3 evictTime 0
284926836000: system.mem_ctrls: mytrace writeOverhead 71807440000 swap 680 write 991306 250133312
284926836000: system.mem_ctrls: mytrace2 totalAccess 15675994 totalHit 10499639 overflow 3 evictTime 0
293027257000: system.mem_ctrls: mytrace writeOverhead 73090640000 swap 680 write 1002454 232286784
293027257000: system.mem_ctrls: mytrace2 totalAccess 16036648 totalHit 10708108 overflow 3 evictTime 0
303029822000: system.mem_ctrls: mytrace writeOverhead 75132280000 swap 1160 write 1017476 251991872
303029822000: system.mem_ctrls: mytrace2 totalAccess 16551061 totalHit 10965324 overflow 4 evictTime 0
305726559000: system.mem_ctrls: mytrace writeOverhead 75538760000 swap 1170 write 1021181 233549760
305726559000: system.mem_ctrls: mytrace2 totalAccess 16669411 totalHit 11036834 overflow 4 evictTime 0
308423717000: system.mem_ctrls: mytrace writeOverhead 75961430000 swap 1179 write 1024906 233847360
308423717000: system.mem_ctrls: mytrace2 totalAccess 16789222 totalHit 11107017 overflow 4 evictTime 0
324658881000: system.mem_ctrls: mytrace writeOverhead 78605690000 swap 2726 write 1047165 235705344
324658881000: system.mem_ctrls: mytrace2 totalAccess 17530334 totalHit 11540985 overflow 4 evictTime 0
326025784000: system.mem_ctrls: mytrace writeOverhead 78840570000 swap 2807 write 1049025 254627520
326025784000: system.mem_ctrls: mytrace2 totalAccess 17592852 totalHit 11575276 overflow 4 evictTime 0
336837332000: system.mem_ctrls: mytrace writeOverhead 80579030000 swap 3048 write 1063879 274631680
336837332000: system.mem_ctrls: mytrace2 totalAccess 18078029 totalHit 11854631 overflow 5 evictTime 0
478195099000: system.mem_ctrls: mytrace writeOverhead 85647725000 swap 3275 write 1096880 477965184
478195099000: system.mem_ctrls: mytrace2 totalAccess 20688413 totalHit 13752859 overflow 5 evictTime 0
480233926000: system.mem_ctrls: mytrace writeOverhead 86125345000 swap 3276 write 1106521 478597760
480233926000: system.mem_ctrls: mytrace2 totalAccess 20854518 totalHit 13903890 overflow 5 evictTime 0
495870253000: system.mem_ctrls: mytrace writeOverhead 87876775000 swap 3280 write 1138298 369144512
495870253000: system.mem_ctrls: mytrace2 totalAccess 21743527 totalHit 14709172 overflow 5 evictTime 0
497903899000: system.mem_ctrls: mytrace writeOverhead 88283660000 swap 3280 write 1145793 370983936
497903899000: system.mem_ctrls: mytrace2 totalAccess 21902625 totalHit 14850023 overflow 5 evictTime 0
499259746000: system.mem_ctrls: mytrace writeOverhead 88554765000 swap 3280 write 1150787 372243648
499259746000: system.mem_ctrls: mytrace2 totalAccess 22008676 totalHit 14943915 overflow 5 evictTime 0
499939282000: system.mem_ctrls: mytrace writeOverhead 88690470000 swap 3280 write 1153290 372856576
499939282000: system.mem_ctrls: mytrace2 totalAccess 22061717 totalHit 14990889 overflow 5 evictTime 0
500613287000: system.mem_ctrls: mytrace writeOverhead 88826970000 swap 3280 write 1155811 373436672
500613287000: system.mem_ctrls: mytrace2 totalAccess 22114829 totalHit 15037936 overflow 5 evictTime 0
502665065000: system.mem_ctrls: mytrace writeOverhead 89289770000 swap 3280 write 1165053 477914176
502665065000: system.mem_ctrls: mytrace2 totalAccess 22279481 totalHit 15187209 overflow 5 evictTime 0
506063054000: system.mem_ctrls: mytrace writeOverhead 90084745000 swap 3280 write 1181113 478928576
506063054000: system.mem_ctrls: mytrace2 totalAccess 22556224 totalHit 15438931 overflow 5 evictTime 0
506747905000: system.mem_ctrls: mytrace writeOverhead 90243760000 swap 3280 write 1184324 479103168
506747905000: system.mem_ctrls: mytrace2 totalAccess 22611569 totalHit 15489264 overflow 5 evictTime 0
518503402000: system.mem_ctrls: mytrace writeOverhead 91256095000 swap 3280 write 1202366 367187840
518503402000: system.mem_ctrls: mytrace2 totalAccess 23189130 totalHit 16016024 overflow 5 evictTime 0
522852144000: system.mem_ctrls: mytrace writeOverhead 92288025000 swap 3280 write 1222360 371700160
522852144000: system.mem_ctrls: mytrace2 totalAccess 23527970 totalHit 16317112 overflow 5 evictTime 0
527081438000: system.mem_ctrls: mytrace writeOverhead 93281220000 swap 3280 write 1241932 477950464
527081438000: system.mem_ctrls: mytrace2 totalAccess 23863392 totalHit 16618250 overflow 5 evictTime 0
528441409000: system.mem_ctrls: mytrace writeOverhead 93597750000 swap 3280 write 1248333 478362688
528441409000: system.mem_ctrls: mytrace2 totalAccess 23973961 totalHit 16718878 overflow 5 evictTime 0
530482473000: system.mem_ctrls: mytrace writeOverhead 94075590000 swap 3280 write 1257985 478979648
530482473000: system.mem_ctrls: mytrace2 totalAccess 24140083 totalHit 16869961 overflow 5 evictTime 0
531845637000: system.mem_ctrls: mytrace writeOverhead 94394565000 swap 3280 write 1264424 479405888
531845637000: system.mem_ctrls: mytrace2 totalAccess 24250863 totalHit 16970679 overflow 5 evictTime 0
541387863000: system.mem_ctrls: mytrace writeOverhead 94875840000 swap 3281 write 1272277 477796032
541387863000: system.mem_ctrls: mytrace2 totalAccess 24657669 totalHit 17346709 overflow 5 evictTime 0
544794944000: system.mem_ctrls: mytrace writeOverhead 95672660000 swap 3282 write 1288377 478840192
544794944000: system.mem_ctrls: mytrace2 totalAccess 24934610 totalHit 17598572 overflow 5 evictTime 0
545479080000: system.mem_ctrls: mytrace writeOverhead 95830345000 swap 3282 write 1291560 479029376
545479080000: system.mem_ctrls: mytrace2 totalAccess 24989836 totalHit 17648797 overflow 5 evictTime 0
546161778000: system.mem_ctrls: mytrace writeOverhead 95990430000 swap 3282 write 1294790 479234432
546161778000: system.mem_ctrls: mytrace2 totalAccess 25045277 totalHit 17699187 overflow 5 evictTime 0
558358218000: system.mem_ctrls: mytrace writeOverhead 97122480000 swap 3283 write 1315821 478497088
558358218000: system.mem_ctrls: mytrace2 totalAccess 25674908 totalHit 18277805 overflow 5 evictTime 0
559716766000: system.mem_ctrls: mytrace writeOverhead 97441130000 swap 3283 write 1322270 478927808
559716766000: system.mem_ctrls: mytrace2 totalAccess 25785679 totalHit 18378614 overflow 5 evictTime 0
572614085000: system.mem_ctrls: mytrace writeOverhead 98733875000 swap 3286 write 1346529 478415744
572614085000: system.mem_ctrls: mytrace2 totalAccess 26470808 totalHit 19007603 overflow 5 evictTime 0
576026835000: system.mem_ctrls: mytrace writeOverhead 99530295000 swap 3287 write 1362614 479442752
576026835000: system.mem_ctrls: mytrace2 totalAccess 26747671 totalHit 19259425 overflow 5 evictTime 0
587293816000: system.mem_ctrls: mytrace writeOverhead 99985800000 swap 3287 write 1368565 366179904
587293816000: system.mem_ctrls: mytrace2 totalAccess 27191706 totalHit 19662976 overflow 5 evictTime 0
589285460000: system.mem_ctrls: mytrace writeOverhead 100189770000 swap 3287 write 1371864 367018240
589285460000: system.mem_ctrls: mytrace2 totalAccess 27291226 totalHit 19749832 overflow 5 evictTime 0
599209952000: system.mem_ctrls: mytrace writeOverhead 101209260000 swap 3290 write 1388484 371133056
599209952000: system.mem_ctrls: mytrace2 totalAccess 27788900 totalHit 20185160 overflow 5 evictTime 0
600199806000: system.mem_ctrls: mytrace writeOverhead 101309890000 swap 3290 write 1390131 371552256
600199806000: system.mem_ctrls: mytrace2 totalAccess 27838543 totalHit 20228683 overflow 5 evictTime 0
602185627000: system.mem_ctrls: mytrace writeOverhead 101513325000 swap 3290 write 1393435 372390464
602185627000: system.mem_ctrls: mytrace2 totalAccess 27938019 totalHit 20315627 overflow 5 evictTime 0
611400677000: system.mem_ctrls: mytrace writeOverhead 103228515000 swap 3291 write 1426717 479149120
611400677000: system.mem_ctrls: mytrace2 totalAccess 28583239 totalHit 20896659 overflow 6 evictTime 0
621621592000: system.mem_ctrls: mytrace writeOverhead 103869050000 swap 3292 write 1437773 477760384
621621592000: system.mem_ctrls: mytrace2 totalAccess 29045404 totalHit 21322953 overflow 6 evictTime 0
622982954000: system.mem_ctrls: mytrace writeOverhead 104188135000 swap 3292 write 1444210 478171200
622982954000: system.mem_ctrls: mytrace2 totalAccess 29156198 totalHit 21423639 overflow 6 evictTime 0
624341333000: system.mem_ctrls: mytrace writeOverhead 104506570000 swap 3292 write 1450638 478576320
624341333000: system.mem_ctrls: mytrace2 totalAccess 29266931 totalHit 21524322 overflow 6 evictTime 0
625703868000: system.mem_ctrls: mytrace writeOverhead 104825445000 swap 3292 write 1457069 478993408
625703868000: system.mem_ctrls: mytrace2 totalAccess 29377701 totalHit 21624990 overflow 6 evictTime 0
626389007000: system.mem_ctrls: mytrace writeOverhead 104984910000 swap 3293 write 1460265 479199488
626389007000: system.mem_ctrls: mytrace2 totalAccess 29433082 totalHit 21675188 overflow 6 evictTime 0
636560242000: system.mem_ctrls: mytrace writeOverhead 105641560000 swap 3294 write 1471692 477873088
636560242000: system.mem_ctrls: mytrace2 totalAccess 29896819 totalHit 22102876 overflow 6 evictTime 0
637919339000: system.mem_ctrls: mytrace writeOverhead 105960690000 swap 3294 write 1478128 478242048
637919339000: system.mem_ctrls: mytrace2 totalAccess 30007609 totalHit 22203561 overflow 6 evictTime 0
650802965000: system.mem_ctrls: mytrace writeOverhead 107254020000 swap 3295 write 1502388 477762688
650802965000: system.mem_ctrls: mytrace2 totalAccess 30692784 totalHit 22832466 overflow 6 evictTime 0
652166410000: system.mem_ctrls: mytrace writeOverhead 107572965000 swap 3296 write 1508805 478177600
652166410000: system.mem_ctrls: mytrace2 totalAccess 30803562 totalHit 22933032 overflow 6 evictTime 0
653524227000: system.mem_ctrls: mytrace writeOverhead 107892600000 swap 3296 write 1515257 478585280
653524227000: system.mem_ctrls: mytrace2 totalAccess 30914415 totalHit 23033779 overflow 6 evictTime 0
654885400000: system.mem_ctrls: mytrace writeOverhead 108209810000 swap 3296 write 1521661 478997440
654885400000: system.mem_ctrls: mytrace2 totalAccess 31025032 totalHit 23134382 overflow 6 evictTime 0
673250499000: system.mem_ctrls: mytrace writeOverhead 109498660000 swap 3297 write 1542651 367481536
673250499000: system.mem_ctrls: mytrace2 totalAccess 31829044 totalHit 23858285 overflow 6 evictTime 0
679773598000: system.mem_ctrls: mytrace writeOverhead 110104490000 swap 3297 write 1552597 369706432
679773598000: system.mem_ctrls: mytrace2 totalAccess 32127004 totalHit 24119871 overflow 6 evictTime 0
684120563000: system.mem_ctrls: mytrace writeOverhead 110508965000 swap 3297 write 1559253 371171328
684120563000: system.mem_ctrls: mytrace2 totalAccess 32325704 totalHit 24294406 overflow 6 evictTime 0
689555401000: system.mem_ctrls: mytrace writeOverhead 111014800000 swap 3297 write 1567555 373000576
689555401000: system.mem_ctrls: mytrace2 totalAccess 32574080 totalHit 24512429 overflow 6 evictTime 0
694065500000: system.mem_ctrls: mytrace writeOverhead 111644870000 swap 3297 write 1579208 477836288
694065500000: system.mem_ctrls: mytrace2 totalAccess 32834652 totalHit 24745058 overflow 6 evictTime 0
696104615000: system.mem_ctrls: mytrace writeOverhead 112122315000 swap 3297 write 1588854 478453440
696104615000: system.mem_ctrls: mytrace2 totalAccess 33000738 totalHit 24896127 overflow 6 evictTime 0
697465943000: system.mem_ctrls: mytrace writeOverhead 112440605000 swap 3297 write 1595280 478864896
697465943000: system.mem_ctrls: mytrace2 totalAccess 33111457 totalHit 24996806 overflow 6 evictTime 0
714534382000: system.mem_ctrls: mytrace writeOverhead 113578015000 swap 3297 write 1613965 366446912
714534382000: system.mem_ctrls: mytrace2 totalAccess 33821024 totalHit 25636700 overflow 6 evictTime 0
721046431000: system.mem_ctrls: mytrace writeOverhead 114095415000 swap 3297 write 1622211 368280192
721046431000: system.mem_ctrls: mytrace2 totalAccess 34070470 totalHit 25853208 overflow 6 evictTime 0
724954401000: system.mem_ctrls: mytrace writeOverhead 114406275000 swap 3297 write 1627166 369320192
724954401000: system.mem_ctrls: mytrace2 totalAccess 34220163 totalHit 25983140 overflow 6 evictTime 0
730164438000: system.mem_ctrls: mytrace writeOverhead 114820375000 swap 3297 write 1633762 370751936
730164438000: system.mem_ctrls: mytrace2 totalAccess 34419720 totalHit 26156339 overflow 6 evictTime 0
731469904000: system.mem_ctrls: mytrace writeOverhead 114923645000 swap 3297 write 1635414 371142848
731469904000: system.mem_ctrls: mytrace2 totalAccess 34469587 totalHit 26199679 overflow 6 evictTime 0
768999956000: system.mem_ctrls: mytrace writeOverhead 116429385000 swap 3297 write 1651862 365625920
768999956000: system.mem_ctrls: mytrace2 totalAccess 35695412 totalHit 27265300 overflow 6 evictTime 0
776934828000: system.mem_ctrls: mytrace writeOverhead 119011405000 swap 3297 write 1702156 478464768
776934828000: system.mem_ctrls: mytrace2 totalAccess 36420049 totalHit 27902952 overflow 6 evictTime 0
warn: MOVNTDQ: Ignoring non-temporal hint, modeling as cacheable!
786841104000: system.mem_ctrls: mytrace writeOverhead 119788305000 swap 3297 write 1715786 1129280
786841104000: system.mem_ctrls: mytrace2 totalAccess 36894815 totalHit 28336989 overflow 6 evictTime 0
787546587000: system.mem_ctrls: mytrace writeOverhead 120089145000 swap 3297 write 1720739 935232
787546587000: system.mem_ctrls: mytrace2 totalAccess 36961361 totalHit 28387906 overflow 7 evictTime 0
788246762000: system.mem_ctrls: mytrace writeOverhead 120396740000 swap 3297 write 1725692 1066688
788246762000: system.mem_ctrls: mytrace2 totalAccess 37028023 totalHit 28438651 overflow 13 evictTime 0
788836135000: system.mem_ctrls: mytrace writeOverhead 120736865000 swap 3298 write 1729957 217864896
788836135000: system.mem_ctrls: mytrace2 totalAccess 37098495 totalHit 28482311 overflow 13 evictTime 0
info: Increasing stack size by one page.
info: Increasing stack size by one page.
856921709000: system.mem_ctrls: mytrace writeOverhead 126302885000 swap 12669 write 1782045 1173929536
856921709000: system.mem_ctrls: mytrace2 totalAccess 39042336 totalHit 29875263 overflow 48 evictTime 0
885894306000: system.mem_ctrls: mytrace writeOverhead 128276120000 swap 15203 write 1802870 445174656
885894306000: system.mem_ctrls: mytrace2 totalAccess 39802579 totalHit 30450226 overflow 51 evictTime 0
894127440000: system.mem_ctrls: mytrace writeOverhead 128818445000 swap 15235 write 1808702 464419072
894127440000: system.mem_ctrls: mytrace2 totalAccess 40012117 totalHit 30605106 overflow 53 evictTime 0
902287864000: system.mem_ctrls: mytrace writeOverhead 129358635000 swap 15235 write 1814875 210768448
902287864000: system.mem_ctrls: mytrace2 totalAccess 40221331 totalHit 30762334 overflow 55 evictTime 0
904017208000: system.mem_ctrls: mytrace writeOverhead 129541170000 swap 15480 write 1817069 444272192
904017208000: system.mem_ctrls: mytrace2 totalAccess 40280028 totalHit 30806579 overflow 56 evictTime 0
924654048000: system.mem_ctrls: mytrace writeOverhead 130924660000 swap 16287 write 1831797 428324288
924654048000: system.mem_ctrls: mytrace2 totalAccess 40812394 totalHit 31203198 overflow 60 evictTime 0
932977261000: system.mem_ctrls: mytrace writeOverhead 131498615000 swap 17122 write 1837759 428757248
932977261000: system.mem_ctrls: mytrace2 totalAccess 41031617 totalHit 31368546 overflow 61 evictTime 0
943332008000: system.mem_ctrls: mytrace writeOverhead 132225295000 swap 18590 write 1845130 466947008
943332008000: system.mem_ctrls: mytrace2 totalAccess 41310225 totalHit 31580475 overflow 62 evictTime 0
961948240000: system.mem_ctrls: mytrace writeOverhead 133555535000 swap 21238 write 1858467 440050368
961948240000: system.mem_ctrls: mytrace2 totalAccess 41813098 totalHit 31960152 overflow 65 evictTime 0
963347466000: system.mem_ctrls: mytrace writeOverhead 133781235000 swap 21394 write 1861162 424904128
963347466000: system.mem_ctrls: mytrace2 totalAccess 41874671 totalHit 32003361 overflow 66 evictTime 0
964739677000: system.mem_ctrls: mytrace writeOverhead 134534350000 swap 21707 write 1870273 429587264
964739677000: system.mem_ctrls: mytrace2 totalAccess 42024557 totalHit 32093672 overflow 66 evictTime 0
966166180000: system.mem_ctrls: mytrace writeOverhead 134898635000 swap 21955 write 1873535 211096192
966166180000: system.mem_ctrls: mytrace2 totalAccess 42099802 totalHit 32130321 overflow 66 evictTime 0
969011069000: system.mem_ctrls: mytrace writeOverhead 135583090000 swap 21980 write 1879893 211348992
969011069000: system.mem_ctrls: mytrace2 totalAccess 42242782 totalHit 32198536 overflow 66 evictTime 0
970428326000: system.mem_ctrls: mytrace writeOverhead 135925845000 swap 21980 write 1883075 267956032
970428326000: system.mem_ctrls: mytrace2 totalAccess 42314224 totalHit 32232450 overflow 66 evictTime 0
973264477000: system.mem_ctrls: mytrace writeOverhead 136606785000 swap 21992 write 1889461 230581120
973264477000: system.mem_ctrls: mytrace2 totalAccess 42456723 totalHit 32301101 overflow 66 evictTime 0
980407001000: system.mem_ctrls: mytrace writeOverhead 138355605000 swap 22361 write 1905417 268787968
980407001000: system.mem_ctrls: mytrace2 totalAccess 42819680 totalHit 32474119 overflow 66 evictTime 0
984669834000: system.mem_ctrls: mytrace writeOverhead 139363385000 swap 22361 write 1915042 231480896
984669834000: system.mem_ctrls: mytrace2 totalAccess 43032240 totalHit 32578169 overflow 66 evictTime 0
990367648000: system.mem_ctrls: mytrace writeOverhead 140749240000 swap 22361 write 1927769 385851584
990367648000: system.mem_ctrls: mytrace2 totalAccess 43318925 totalHit 32712917 overflow 66 evictTime 0
998918935000: system.mem_ctrls: mytrace writeOverhead 142854520000 swap 23202 write 1946948 232714176
998918935000: system.mem_ctrls: mytrace2 totalAccess 43758869 totalHit 32925927 overflow 66 evictTime 0
1001015644000: system.mem_ctrls: mytrace writeOverhead 143541020000 swap 23323 write 1953841 403107008
1001015644000: system.mem_ctrls: mytrace2 totalAccess 43902088 totalHit 33000722 overflow 66 evictTime 0
1002784993000: system.mem_ctrls: mytrace writeOverhead 144482240000 swap 23386 write 1960674 386397952
1002784993000: system.mem_ctrls: mytrace2 totalAccess 44066979 totalHit 33051990 overflow 66 evictTime 0
1003674843000: system.mem_ctrls: mytrace writeOverhead 144962180000 swap 23432 write 1964061 365780288
1003674843000: system.mem_ctrls: mytrace2 totalAccess 44150304 totalHit 33076855 overflow 66 evictTime 0
1012709859000: system.mem_ctrls: mytrace writeOverhead 147628630000 swap 23953 write 1986869 233411456
1012709859000: system.mem_ctrls: mytrace2 totalAccess 44676714 totalHit 33304419 overflow 66 evictTime 0
1015556475000: system.mem_ctrls: mytrace writeOverhead 148295545000 swap 24135 write 1993231 387444224
1015556475000: system.mem_ctrls: mytrace2 totalAccess 44819415 totalHit 33376387 overflow 66 evictTime 0
1016980965000: system.mem_ctrls: mytrace writeOverhead 148641850000 swap 24236 write 1996423 271368576
1016980965000: system.mem_ctrls: mytrace2 totalAccess 44891900 totalHit 33411591 overflow 66 evictTime 0
1018413698000: system.mem_ctrls: mytrace writeOverhead 148989985000 swap 24353 write 1999618 215030912
1018413698000: system.mem_ctrls: mytrace2 totalAccess 44964693 totalHit 33446967 overflow 66 evictTime 0
1026984648000: system.mem_ctrls: mytrace writeOverhead 151072130000 swap 24539 write 2018826 234562368
1026984648000: system.mem_ctrls: mytrace2 totalAccess 45396779 totalHit 33651766 overflow 66 evictTime 0
1031270855000: system.mem_ctrls: mytrace writeOverhead 152108180000 swap 24540 write 2028376 407541056
1031270855000: system.mem_ctrls: mytrace2 totalAccess 45611403 totalHit 33753115 overflow 66 evictTime 0
1032706641000: system.mem_ctrls: mytrace writeOverhead 152459745000 swap 24540 write 2031567 234990016
1032706641000: system.mem_ctrls: mytrace2 totalAccess 45683326 totalHit 33786506 overflow 66 evictTime 0
1035564788000: system.mem_ctrls: mytrace writeOverhead 153152870000 swap 24540 write 2037954 254083776
1035564788000: system.mem_ctrls: mytrace2 totalAccess 45826617 totalHit 33853943 overflow 66 evictTime 0
1047996700000: system.mem_ctrls: mytrace writeOverhead 156240440000 swap 25336 write 2067102 235991552
1047996700000: system.mem_ctrls: mytrace2 totalAccess 46474610 totalHit 34176537 overflow 66 evictTime 0
1059405363000: system.mem_ctrls: mytrace writeOverhead 158994970000 swap 25343 write 2092743 255668864
1059405363000: system.mem_ctrls: mytrace2 totalAccess 47046629 totalHit 34448256 overflow 66 evictTime 0
1060843929000: system.mem_ctrls: mytrace writeOverhead 159348460000 swap 25343 write 2095951 218172800
1060843929000: system.mem_ctrls: mytrace2 totalAccess 47118835 totalHit 34481675 overflow 66 evictTime 0
1076523161000: system.mem_ctrls: mytrace writeOverhead 163109795000 swap 25343 write 2131014 373280192
1076523161000: system.mem_ctrls: mytrace2 totalAccess 47902926 totalHit 34855775 overflow 66 evictTime 0
1077957699000: system.mem_ctrls: mytrace writeOverhead 163467345000 swap 25344 write 2134209 257190400
1077957699000: system.mem_ctrls: mytrace2 totalAccess 47975557 totalHit 34888643 overflow 66 evictTime 0
1080825690000: system.mem_ctrls: mytrace writeOverhead 164172605000 swap 25558 write 2140594 267365824
1080825690000: system.mem_ctrls: mytrace2 totalAccess 48121829 totalHit 34958328 overflow 67 evictTime 0
1083691463000: system.mem_ctrls: mytrace writeOverhead 164900620000 swap 26115 write 2147019 392509632
1083691463000: system.mem_ctrls: mytrace2 totalAccess 48272821 totalHit 35031686 overflow 68 evictTime 0
1084565683000: system.mem_ctrls: mytrace writeOverhead 165241685000 swap 26117 write 2150957 235665088
1084565683000: system.mem_ctrls: mytrace2 totalAccess 48343511 totalHit 35072510 overflow 68 evictTime 0
1086382755000: system.mem_ctrls: mytrace writeOverhead 165696220000 swap 26123 write 2157553 440219328
1086382755000: system.mem_ctrls: mytrace2 totalAccess 48465122 totalHit 35163785 overflow 68 evictTime 0
1087462886000: system.mem_ctrls: mytrace writeOverhead 165875520000 swap 26123 write 2160249 421668992
1087462886000: system.mem_ctrls: mytrace2 totalAccess 48521885 totalHit 35208567 overflow 68 evictTime 0
1089618012000: system.mem_ctrls: mytrace writeOverhead 166238510000 swap 26124 write 2165669 422111552
1089618012000: system.mem_ctrls: mytrace2 totalAccess 48635928 totalHit 35297877 overflow 68 evictTime 0
1095002592000: system.mem_ctrls: mytrace writeOverhead 167136640000 swap 26124 write 2179178 423328832
1095002592000: system.mem_ctrls: mytrace2 totalAccess 48920028 totalHit 35521769 overflow 68 evictTime 0
1100991791000: system.mem_ctrls: mytrace writeOverhead 168426000000 swap 26130 write 2196128 213033792
1100991791000: system.mem_ctrls: mytrace2 totalAccess 49279164 totalHit 35778305 overflow 68 evictTime 0
1101983915000: system.mem_ctrls: mytrace writeOverhead 168684950000 swap 26130 write 2198839 214066944
1101983915000: system.mem_ctrls: mytrace2 totalAccess 49342757 totalHit 35816385 overflow 68 evictTime 0
1105211318000: system.mem_ctrls: mytrace writeOverhead 169218200000 swap 26130 write 2206926 214749632
1105211318000: system.mem_ctrls: mytrace2 totalAccess 49512578 totalHit 35951209 overflow 68 evictTime 0
1106291139000: system.mem_ctrls: mytrace writeOverhead 169401240000 swap 26130 write 2209632 444133952
1106291139000: system.mem_ctrls: mytrace2 totalAccess 49569679 totalHit 35995740 overflow 68 evictTime 0
1112757458000: system.mem_ctrls: mytrace writeOverhead 170497810000 swap 26130 write 2225872 216338304
1112757458000: system.mem_ctrls: mytrace2 totalAccess 49912337 totalHit 36262918 overflow 68 evictTime 0
1116363978000: system.mem_ctrls: mytrace writeOverhead 171365480000 swap 26131 write 2237423 427471552
1116363978000: system.mem_ctrls: mytrace2 totalAccess 50152032 totalHit 36435608 overflow 68 evictTime 0
1119478652000: system.mem_ctrls: mytrace writeOverhead 171990155000 swap 26135 write 2246131 446551680
1119478652000: system.mem_ctrls: mytrace2 totalAccess 50329520 totalHit 36567834 overflow 68 evictTime 0
1123785889000: system.mem_ctrls: mytrace writeOverhead 172716180000 swap 26137 write 2256966 218276928
1123785889000: system.mem_ctrls: mytrace2 totalAccess 50557526 totalHit 36746478 overflow 68 evictTime 0
1125945286000: system.mem_ctrls: mytrace writeOverhead 173075350000 swap 26137 write 2262364 429027200
1125945286000: system.mem_ctrls: mytrace2 totalAccess 50671082 totalHit 36836077 overflow 68 evictTime 0
1128100244000: system.mem_ctrls: mytrace writeOverhead 173435130000 swap 26137 write 2267758 429460416
1128100244000: system.mem_ctrls: mytrace2 totalAccess 50784751 totalHit 36925518 overflow 68 evictTime 0
1132662270000: system.mem_ctrls: mytrace writeOverhead 174517625000 swap 26141 write 2282394 430179456
1132662270000: system.mem_ctrls: mytrace2 totalAccess 51084407 totalHit 37142994 overflow 68 evictTime 0
1133245030000: system.mem_ctrls: mytrace writeOverhead 174877175000 swap 26141 write 2286848 199331072
1133245030000: system.mem_ctrls: mytrace2 totalAccess 51156364 totalHit 37186657 overflow 68 evictTime 0
1133799462000: system.mem_ctrls: mytrace writeOverhead 175238900000 swap 26141 write 2291460 198792192
1133799462000: system.mem_ctrls: mytrace2 totalAccess 51228621 totalHit 37231284 overflow 68 evictTime 0
1135005397000: system.mem_ctrls: mytrace writeOverhead 175943885000 swap 26142 write 2300680 233316800
1135005397000: system.mem_ctrls: mytrace2 totalAccess 51371738 totalHit 37321931 overflow 68 evictTime 0
1135583218000: system.mem_ctrls: mytrace writeOverhead 176301300000 swap 26142 write 2305250 251397952
1135583218000: system.mem_ctrls: mytrace2 totalAccess 51443659 totalHit 37366556 overflow 68 evictTime 0
1136134984000: system.mem_ctrls: mytrace writeOverhead 176661700000 swap 26142 write 2309855 250723840
1136134984000: system.mem_ctrls: mytrace2 totalAccess 51515824 totalHit 37411219 overflow 68 evictTime 0
1137242734000: system.mem_ctrls: mytrace writeOverhead 177379570000 swap 26143 write 2319030 270062080
1137242734000: system.mem_ctrls: mytrace2 totalAccess 51659941 totalHit 37500514 overflow 68 evictTime 0
1138539732000: system.mem_ctrls: mytrace writeOverhead 178039370000 swap 26149 write 2327858 515638144
1138539732000: system.mem_ctrls: mytrace2 totalAccess 51799449 totalHit 37591722 overflow 68 evictTime 0
1139925836000: system.mem_ctrls: mytrace writeOverhead 178601980000 swap 26149 write 2336397 497198912
1139925836000: system.mem_ctrls: mytrace2 totalAccess 51931030 totalHit 37688403 overflow 68 evictTime 0
1140619993000: system.mem_ctrls: mytrace writeOverhead 178888800000 swap 26150 write 2340678 78262720
1140619993000: system.mem_ctrls: mytrace2 totalAccess 51997379 totalHit 37736303 overflow 68 evictTime 0
1142010892000: system.mem_ctrls: mytrace writeOverhead 179464830000 swap 26150 write 2349219 116293120
1142010892000: system.mem_ctrls: mytrace2 totalAccess 52130186 totalHit 37831767 overflow 68 evictTime 0
1143406079000: system.mem_ctrls: mytrace writeOverhead 180031125000 swap 26150 write 2357778 97788160
1143406079000: system.mem_ctrls: mytrace2 totalAccess 52262120 totalHit 37928230 overflow 68 evictTime 0
1144100918000: system.mem_ctrls: mytrace writeOverhead 180310390000 swap 26150 write 2362042 116859008
1144100918000: system.mem_ctrls: mytrace2 totalAccess 52327775 totalHit 37976666 overflow 68 evictTime 0
1145488960000: system.mem_ctrls: mytrace writeOverhead 180876710000 swap 26150 write 2370601 98364672
1145488960000: system.mem_ctrls: mytrace2 totalAccess 52459849 totalHit 38072994 overflow 68 evictTime 0
1146188199000: system.mem_ctrls: mytrace writeOverhead 181170020000 swap 26151 write 2374863 117345472
1146188199000: system.mem_ctrls: mytrace2 totalAccess 52526668 totalHit 38120253 overflow 68 evictTime 0
1161571127000: system.mem_ctrls: mytrace writeOverhead 183379730000 swap 26273 write 2399953 364445504
1161571127000: system.mem_ctrls: mytrace2 totalAccess 53048214 totalHit 38434910 overflow 68 evictTime 0
1171885134000: system.mem_ctrls: mytrace writeOverhead 184162845000 swap 26273 write 2405176 117056960
1171885134000: system.mem_ctrls: mytrace2 totalAccess 53237416 totalHit 38519757 overflow 70 evictTime 0
1182079334000: system.mem_ctrls: mytrace writeOverhead 184955440000 swap 26273 write 2410448 364444480
1182079334000: system.mem_ctrls: mytrace2 totalAccess 53427192 totalHit 38604556 overflow 75 evictTime 0
1190233416000: system.mem_ctrls: mytrace writeOverhead 185610280000 swap 26274 write 2413732 115448448
1190233416000: system.mem_ctrls: mytrace2 totalAccess 53566540 totalHit 38647014 overflow 75 evictTime 0
1319224926000: system.mem_ctrls: mytrace writeOverhead 194162850000 swap 26283 write 2462658 364438592
1319224926000: system.mem_ctrls: mytrace2 totalAccess 55590482 totalHit 39451444 overflow 91 evictTime 0
1346673144000: system.mem_ctrls: mytrace writeOverhead 196195820000 swap 26283 write 2479233 364442432
1346673144000: system.mem_ctrls: mytrace2 totalAccess 56172896 totalHit 39785929 overflow 100 evictTime 0
1352602473000: system.mem_ctrls: mytrace writeOverhead 196573440000 swap 26283 write 2482516 79843840
1352602473000: system.mem_ctrls: mytrace2 totalAccess 56286630 totalHit 39855221 overflow 100 evictTime 0
1360699103000: system.mem_ctrls: mytrace writeOverhead 197172825000 swap 26285 write 2487258 364439360
1360699103000: system.mem_ctrls: mytrace2 totalAccess 56459832 totalHit 39954440 overflow 106 evictTime 0
1363341803000: system.mem_ctrls: mytrace writeOverhead 197363255000 swap 26285 write 2488785 80248000
1363341803000: system.mem_ctrls: mytrace2 totalAccess 56516959 totalHit 39987808 overflow 106 evictTime 0
1373741221000: system.mem_ctrls: mytrace writeOverhead 198249595000 swap 27256 write 2495748 171792512
1373741221000: system.mem_ctrls: mytrace2 totalAccess 56765193 totalHit 40132987 overflow 109 evictTime 0
1375527375000: system.mem_ctrls: mytrace writeOverhead 198713540000 swap 28189 write 2499739 134548352
1375527375000: system.mem_ctrls: mytrace2 totalAccess 56896191 totalHit 40216274 overflow 109 evictTime 0
1377301267000: system.mem_ctrls: mytrace writeOverhead 199166685000 swap 28223 write 2503753 134865280
1377301267000: system.mem_ctrls: mytrace2 totalAccess 57018936 totalHit 40286435 overflow 110 evictTime 0
1381729103000: system.mem_ctrls: mytrace writeOverhead 200257985000 swap 28224 write 2513758 154664512
1381729103000: system.mem_ctrls: mytrace2 totalAccess 57321397 totalHit 40463973 overflow 110 evictTime 0
1384377214000: system.mem_ctrls: mytrace writeOverhead 200916095000 swap 28236 write 2519758 136404096
1384377214000: system.mem_ctrls: mytrace2 totalAccess 57503041 totalHit 40570576 overflow 110 evictTime 0
1388602889000: system.mem_ctrls: mytrace writeOverhead 202014930000 swap 28287 write 2533523 256814208
1388602889000: system.mem_ctrls: mytrace2 totalAccess 57805405 totalHit 40779508 overflow 110 evictTime 0
1389395195000: system.mem_ctrls: mytrace writeOverhead 202280850000 swap 28290 write 2537081 459158528
1389395195000: system.mem_ctrls: mytrace2 totalAccess 57869370 totalHit 40824062 overflow 110 evictTime 0
1390073637000: system.mem_ctrls: mytrace writeOverhead 202701450000 swap 28291 write 2541398 97621888
1390073637000: system.mem_ctrls: mytrace2 totalAccess 57946088 totalHit 40861887 overflow 110 evictTime 0
1392095176000: system.mem_ctrls: mytrace writeOverhead 203462100000 swap 28358 write 2548928 116344064
1392095176000: system.mem_ctrls: mytrace2 totalAccess 58093600 totalHit 40935918 overflow 110 evictTime 0
1396460360000: system.mem_ctrls: mytrace writeOverhead 204150175000 swap 28364 write 2552185 96351424
1396460360000: system.mem_ctrls: mytrace2 totalAccess 58237294 totalHit 40976894 overflow 111 evictTime 0
1398581440000: system.mem_ctrls: mytrace writeOverhead 204490550000 swap 28365 write 2553763 96957952
1398581440000: system.mem_ctrls: mytrace2 totalAccess 58308983 totalHit 40997532 overflow 111 evictTime 0
1403108571000: system.mem_ctrls: mytrace writeOverhead 204873560000 swap 28368 write 2556724 364441664
1403108571000: system.mem_ctrls: mytrace2 totalAccess 58424201 totalHit 41064901 overflow 112 evictTime 0
1420181591000: system.mem_ctrls: mytrace writeOverhead 208417915000 swap 29502 write 2582356 364442688
1420181591000: system.mem_ctrls: mytrace2 totalAccess 59195317 totalHit 41402429 overflow 114 evictTime 0
1423946115000: system.mem_ctrls: mytrace writeOverhead 209334535000 swap 30492 write 2587882 12736
1423946115000: system.mem_ctrls: mytrace2 totalAccess 59407922 totalHit 41497076 overflow 115 evictTime 0
1426764966000: system.mem_ctrls: mytrace writeOverhead 210465045000 swap 30574 write 2604709 99795904
1426764966000: system.mem_ctrls: mytrace2 totalAccess 59672445 totalHit 41689018 overflow 115 evictTime 0
1427462308000: system.mem_ctrls: mytrace writeOverhead 210746240000 swap 30581 write 2608984 519152576
1427462308000: system.mem_ctrls: mytrace2 totalAccess 59738325 totalHit 41737468 overflow 115 evictTime 0
1430920645000: system.mem_ctrls: mytrace writeOverhead 212135290000 swap 30613 write 2630363 520012032
1430920645000: system.mem_ctrls: mytrace2 totalAccess 60066433 totalHit 41981007 overflow 115 evictTime 0
1432305570000: system.mem_ctrls: mytrace writeOverhead 212695320000 swap 30614 write 2638903 82384448
1432305570000: system.mem_ctrls: mytrace2 totalAccess 60197914 totalHit 42077807 overflow 115 evictTime 0
1432999972000: system.mem_ctrls: mytrace writeOverhead 212984395000 swap 30614 write 2643186 120269376
1432999972000: system.mem_ctrls: mytrace2 totalAccess 60264465 totalHit 42125498 overflow 115 evictTime 0
1435094029000: system.mem_ctrls: mytrace writeOverhead 213836175000 swap 30614 write 2655997 521124032
1435094029000: system.mem_ctrls: mytrace2 totalAccess 60462700 totalHit 42269659 overflow 116 evictTime 0
1435786969000: system.mem_ctrls: mytrace writeOverhead 214112925000 swap 30614 write 2660285 102158144
1435786969000: system.mem_ctrls: mytrace2 totalAccess 60528189 totalHit 42318441 overflow 116 evictTime 0
1452342316000: system.mem_ctrls: mytrace writeOverhead 215717905000 swap 30625 write 2674322 119159872
1452342316000: system.mem_ctrls: mytrace2 totalAccess 60912728 totalHit 42517077 overflow 119 evictTime 0
1458968039000: system.mem_ctrls: mytrace writeOverhead 216244890000 swap 30625 write 2677993 119746752
1458968039000: system.mem_ctrls: mytrace2 totalAccess 61038705 totalHit 42574333 overflow 120 evictTime 0
1490441495000: system.mem_ctrls: mytrace writeOverhead 218696950000 swap 30734 write 2691394 119422464
1490441495000: system.mem_ctrls: mytrace2 totalAccess 61583355 totalHit 42767545 overflow 127 evictTime 0
1515953083000: system.mem_ctrls: mytrace writeOverhead 220708880000 swap 30910 write 2699043 364438400
1515953083000: system.mem_ctrls: mytrace2 totalAccess 61971746 totalHit 42839519 overflow 132 evictTime 0
1520949016000: system.mem_ctrls: mytrace writeOverhead 221112515000 swap 30984 write 2700527 119043840
1520949016000: system.mem_ctrls: mytrace2 totalAccess 62050085 totalHit 42853996 overflow 132 evictTime 0
1547944520000: system.mem_ctrls: mytrace writeOverhead 223503345000 swap 31036 write 2709866 364439488
1547944520000: system.mem_ctrls: mytrace2 totalAccess 62510632 totalHit 42939420 overflow 137 evictTime 0
1580244920000: system.mem_ctrls: mytrace writeOverhead 225201945000 swap 31039 write 2720964 100637696
1580244920000: system.mem_ctrls: mytrace2 totalAccess 62946828 totalHit 43143793 overflow 139 evictTime 0
1594299612000: system.mem_ctrls: mytrace writeOverhead 225525225000 swap 31040 write 2725848 101862400
1594299612000: system.mem_ctrls: mytrace2 totalAccess 63096322 totalHit 43270997 overflow 140 evictTime 0
1598923118000: system.mem_ctrls: mytrace writeOverhead 225633290000 swap 31046 write 2727479 102187904
1598923118000: system.mem_ctrls: mytrace2 totalAccess 63146079 totalHit 43313456 overflow 141 evictTime 0
1601808928000: system.mem_ctrls: mytrace writeOverhead 225830975000 swap 31047 write 2729272 364438080
1601808928000: system.mem_ctrls: mytrace2 totalAccess 63203448 totalHit 43348221 overflow 142 evictTime 0
1629371566000: system.mem_ctrls: mytrace writeOverhead 227816110000 swap 31048 write 2745828 81524544
1629371566000: system.mem_ctrls: mytrace2 totalAccess 63780894 totalHit 43685389 overflow 149 evictTime 0
1648696533000: system.mem_ctrls: mytrace writeOverhead 229227980000 swap 31048 write 2757795 364438144
1648696533000: system.mem_ctrls: mytrace2 totalAccess 64184249 totalHit 43920529 overflow 155 evictTime 0
1650808175000: system.mem_ctrls: mytrace writeOverhead 229456475000 swap 31048 write 2759380 82201664
1650808175000: system.mem_ctrls: mytrace2 totalAccess 64244395 totalHit 43950798 overflow 158 evictTime 0
1653785301000: system.mem_ctrls: mytrace writeOverhead 229637235000 swap 31048 write 2761006 364442432
1653785301000: system.mem_ctrls: mytrace2 totalAccess 64300647 totalHit 43985978 overflow 158 evictTime 0
1693233234000: system.mem_ctrls: mytrace writeOverhead 233608030000 swap 31383 write 2795053 175747392
1693233234000: system.mem_ctrls: mytrace2 totalAccess 65424925 totalHit 44640527 overflow 169 evictTime 0
1697652645000: system.mem_ctrls: mytrace writeOverhead 234682425000 swap 31410 write 2805054 138954304
1697652645000: system.mem_ctrls: mytrace2 totalAccess 65726010 totalHit 44820026 overflow 169 evictTime 0
1699427393000: system.mem_ctrls: mytrace writeOverhead 235130820000 swap 31426 write 2809048 177005248
1699427393000: system.mem_ctrls: mytrace2 totalAccess 65848199 totalHit 44890145 overflow 169 evictTime 0
1703630911000: system.mem_ctrls: mytrace writeOverhead 236150810000 swap 31450 write 2822062 257601280
1703630911000: system.mem_ctrls: mytrace2 totalAccess 66144334 totalHit 45098632 overflow 169 evictTime 0
1704487764000: system.mem_ctrls: mytrace writeOverhead 236363135000 swap 31458 write 2825855 276601984
1704487764000: system.mem_ctrls: mytrace2 totalAccess 66204255 totalHit 45149229 overflow 169 evictTime 0
1705906145000: system.mem_ctrls: mytrace writeOverhead 237030605000 swap 31498 write 2834705 464365888
1705906145000: system.mem_ctrls: mytrace2 totalAccess 66344457 totalHit 45240738 overflow 169 evictTime 0
1730269402000: system.mem_ctrls: mytrace writeOverhead 239119595000 swap 32290 write 2851941 118905152
1730269402000: system.mem_ctrls: mytrace2 totalAccess 66859764 totalHit 45514240 overflow 174 evictTime 0
1754635983000: system.mem_ctrls: mytrace writeOverhead 241138530000 swap 33113 write 2868805 102301760
1754635983000: system.mem_ctrls: mytrace2 totalAccess 67370715 totalHit 45790794 overflow 176 evictTime 0
1757401927000: system.mem_ctrls: mytrace writeOverhead 242250435000 swap 33114 write 2885901 121824128
1757401927000: system.mem_ctrls: mytrace2 totalAccess 67633076 totalHit 45985112 overflow 176 evictTime 0
1759484353000: system.mem_ctrls: mytrace writeOverhead 243105065000 swap 33116 write 2898733 522589248
1759484353000: system.mem_ctrls: mytrace2 totalAccess 67831695 totalHit 46129119 overflow 176 evictTime 0
1760876661000: system.mem_ctrls: mytrace writeOverhead 243672820000 swap 33116 write 2907276 522969216
1760876661000: system.mem_ctrls: mytrace2 totalAccess 67963939 totalHit 46225158 overflow 176 evictTime 0
1761568573000: system.mem_ctrls: mytrace writeOverhead 243949825000 swap 33116 write 2911555 466644864
1761568573000: system.mem_ctrls: mytrace2 totalAccess 68029443 totalHit 46273855 overflow 176 evictTime 0
1764332067000: system.mem_ctrls: mytrace writeOverhead 245049625000 swap 33116 write 2928650 104602816
1764332067000: system.mem_ctrls: mytrace2 totalAccess 68290860 totalHit 46469062 overflow 176 evictTime 0
1765720888000: system.mem_ctrls: mytrace writeOverhead 245621060000 swap 33116 write 2937205 467639808
1765720888000: system.mem_ctrls: mytrace2 totalAccess 68423302 totalHit 46565003 overflow 176 evictTime 0
1777181881000: system.mem_ctrls: mytrace writeOverhead 246703040000 swap 33179 write 2945988 121874880
1777181881000: system.mem_ctrls: mytrace2 totalAccess 68680503 totalHit 46692570 overflow 181 evictTime 0
1780350886000: system.mem_ctrls: mytrace writeOverhead 246961910000 swap 33179 write 2947863 364444608
1780350886000: system.mem_ctrls: mytrace2 totalAccess 68743515 totalHit 46722164 overflow 181 evictTime 0
1790055650000: system.mem_ctrls: mytrace writeOverhead 247754910000 swap 33181 write 2953293 122694144
1790055650000: system.mem_ctrls: mytrace2 totalAccess 68935201 totalHit 46809569 overflow 184 evictTime 0
1811118081000: system.mem_ctrls: mytrace writeOverhead 249464800000 swap 33232 write 2964088 122947456
1811118081000: system.mem_ctrls: mytrace2 totalAccess 69330066 totalHit 46971536 overflow 189 evictTime 0
1841824909000: system.mem_ctrls: mytrace writeOverhead 251825265000 swap 33441 write 2973184 122716288
1841824909000: system.mem_ctrls: mytrace2 totalAccess 69792121 totalHit 47062451 overflow 191 evictTime 0
1856168496000: system.mem_ctrls: mytrace writeOverhead 253005955000 swap 33486 write 2977788 104274496
1856168496000: system.mem_ctrls: mytrace2 totalAccess 70021318 totalHit 47106531 overflow 194 evictTime 0
1893262843000: system.mem_ctrls: mytrace writeOverhead 255839580000 swap 33488 write 2990159 102581568
1893262843000: system.mem_ctrls: mytrace2 totalAccess 70601806 totalHit 47252113 overflow 199 evictTime 0
1902636732000: system.mem_ctrls: mytrace writeOverhead 256053525000 swap 33488 write 2993406 103309120
1902636732000: system.mem_ctrls: mytrace2 totalAccess 70701353 totalHit 47336908 overflow 199 evictTime 0
1907309161000: system.mem_ctrls: mytrace writeOverhead 256162700000 swap 33489 write 2995054 103698624
1907309161000: system.mem_ctrls: mytrace2 totalAccess 70751240 totalHit 47379364 overflow 200 evictTime 0
1938423464000: system.mem_ctrls: mytrace writeOverhead 257633585000 swap 33496 write 3009788 364437504
1938423464000: system.mem_ctrls: mytrace2 totalAccess 71243711 totalHit 47713279 overflow 205 evictTime 0
1954197494000: system.mem_ctrls: mytrace writeOverhead 258870830000 swap 33496 write 3020390 84483008
1954197494000: system.mem_ctrls: mytrace2 totalAccess 71592469 totalHit 47916027 overflow 211 evictTime 0
1981146206000: system.mem_ctrls: mytrace writeOverhead 260921950000 swap 34652 write 3037441 364443584
1981146206000: system.mem_ctrls: mytrace2 totalAccess 72182920 totalHit 48267776 overflow 219 evictTime 0
1988869215000: system.mem_ctrls: mytrace writeOverhead 261568380000 swap 35103 write 3042710 85596864
1988869215000: system.mem_ctrls: mytrace2 totalAccess 72363664 totalHit 48373537 overflow 221 evictTime 0
2009577667000: system.mem_ctrls: mytrace writeOverhead 263259915000 swap 36476 write 3056175 158753472
2009577667000: system.mem_ctrls: mytrace2 totalAccess 72846142 totalHit 48657001 overflow 227 evictTime 0
2017883610000: system.mem_ctrls: mytrace writeOverhead 265669635000 swap 47898 write 3074197 160193728
2017883610000: system.mem_ctrls: mytrace2 totalAccess 73525312 totalHit 49116041 overflow 242 evictTime 0
2019737320000: system.mem_ctrls: mytrace writeOverhead 266201315000 swap 50888 write 3078204 179407552
2019737320000: system.mem_ctrls: mytrace2 totalAccess 73679940 totalHit 49225186 overflow 242 evictTime 0
2025128298000: system.mem_ctrls: mytrace writeOverhead 267856910000 swap 58724 write 3092130 114942144
2025128298000: system.mem_ctrls: mytrace2 totalAccess 74139946 totalHit 49544551 overflow 242 evictTime 0
2026520481000: system.mem_ctrls: mytrace writeOverhead 268432810000 swap 58724 write 3100685 115316288
2026520481000: system.mem_ctrls: mytrace2 totalAccess 74272814 totalHit 49640039 overflow 242 evictTime 0
2051159416000: system.mem_ctrls: mytrace writeOverhead 269724285000 swap 58828 write 3110157 364441536
2051159416000: system.mem_ctrls: mytrace2 totalAccess 74632926 totalHit 49832396 overflow 244 evictTime 0
2065030223000: system.mem_ctrls: mytrace writeOverhead 271659725000 swap 61783 write 3128845 467776384
2065030223000: system.mem_ctrls: mytrace2 totalAccess 75153447 totalHit 50163987 overflow 249 evictTime 0
2071009960000: system.mem_ctrls: mytrace writeOverhead 272503475000 swap 61791 write 3138285 123946752
2071009960000: system.mem_ctrls: mytrace2 totalAccess 75350152 totalHit 50280735 overflow 250 evictTime 0
2102687736000: system.mem_ctrls: mytrace writeOverhead 274569335000 swap 62672 write 3154078 229738368
2102687736000: system.mem_ctrls: mytrace2 totalAccess 75947272 totalHit 50620340 overflow 254 evictTime 0
2106363091000: system.mem_ctrls: mytrace writeOverhead 275733535000 swap 62674 write 3174106 231418176
2106363091000: system.mem_ctrls: mytrace2 totalAccess 76296956 totalHit 50910850 overflow 254 evictTime 0
2107584616000: system.mem_ctrls: mytrace writeOverhead 276113405000 swap 62674 write 3180756 250721536
2107584616000: system.mem_ctrls: mytrace2 totalAccess 76412769 totalHit 51008200 overflow 254 evictTime 0
2108810800000: system.mem_ctrls: mytrace writeOverhead 276499660000 swap 62674 write 3187412 251290560
2108810800000: system.mem_ctrls: mytrace2 totalAccess 76529166 totalHit 51105021 overflow 254 evictTime 0
2110651776000: system.mem_ctrls: mytrace writeOverhead 277085160000 swap 62674 write 3197410 270943744
2110651776000: system.mem_ctrls: mytrace2 totalAccess 76704246 totalHit 51249869 overflow 254 evictTime 0
2111260667000: system.mem_ctrls: mytrace writeOverhead 277271175000 swap 62674 write 3200744 252382464
2111260667000: system.mem_ctrls: mytrace2 totalAccess 76761822 totalHit 51298949 overflow 254 evictTime 0
2113101082000: system.mem_ctrls: mytrace writeOverhead 277853130000 swap 62674 write 3210743 253242368
2113101082000: system.mem_ctrls: mytrace2 totalAccess 76936626 totalHit 51444091 overflow 254 evictTime 0
2113709584000: system.mem_ctrls: mytrace writeOverhead 278039450000 swap 62674 write 3214076 253514432
2113709584000: system.mem_ctrls: mytrace2 totalAccess 76994210 totalHit 51493157 overflow 254 evictTime 0
2116156818000: system.mem_ctrls: mytrace writeOverhead 278810765000 swap 62675 write 3227410 273451776
2116156818000: system.mem_ctrls: mytrace2 totalAccess 77226867 totalHit 51687118 overflow 254 evictTime 0
2116769375000: system.mem_ctrls: mytrace writeOverhead 279007465000 swap 62675 write 3230745 236105536
2116769375000: system.mem_ctrls: mytrace2 totalAccess 77285338 totalHit 51735305 overflow 254 evictTime 0
2117384025000: system.mem_ctrls: mytrace writeOverhead 279204570000 swap 62675 write 3234081 255194752
2117384025000: system.mem_ctrls: mytrace2 totalAccess 77343869 totalHit 51783436 overflow 254 evictTime 0
2123514413000: system.mem_ctrls: mytrace writeOverhead 281355250000 swap 62678 write 3269130 232424128
2123514413000: system.mem_ctrls: mytrace2 totalAccess 77944240 totalHit 52263405 overflow 254 evictTime 0
2124111608000: system.mem_ctrls: mytrace writeOverhead 281713020000 swap 62678 write 3273700 249395456
2124111608000: system.mem_ctrls: mytrace2 totalAccess 78016183 totalHit 52308009 overflow 254 evictTime 0
2128757485000: system.mem_ctrls: mytrace writeOverhead 283819855000 swap 62679 write 3302944 248259648
2128757485000: system.mem_ctrls: mytrace2 totalAccess 78485645 totalHit 52632459 overflow 254 evictTime 0
2164283236000: system.mem_ctrls: mytrace writeOverhead 297484535000 swap 62688 write 3606965 364453440
2164283236000: system.mem_ctrls: mytrace2 totalAccess 82303095 totalHit 56204630 overflow 254 evictTime 0
2174356264000: system.mem_ctrls: mytrace writeOverhead 299650375000 swap 62688 write 3625175 364454464
2174356264000: system.mem_ctrls: mytrace2 totalAccess 82775808 totalHit 56428701 overflow 259 evictTime 0
2194620257000: system.mem_ctrls: mytrace writeOverhead 303977500000 swap 62689 write 3661484 23054720
2194620257000: system.mem_ctrls: mytrace2 totalAccess 83720333 totalHit 56876400 overflow 271 evictTime 0
2199010565000: system.mem_ctrls: mytrace writeOverhead 304908350000 swap 62690 write 3669218 42198464
2199010565000: system.mem_ctrls: mytrace2 totalAccess 83923069 totalHit 56971860 overflow 274 evictTime 0
2200369159000: system.mem_ctrls: mytrace writeOverhead 305217540000 swap 62690 write 3671891 23499520
2200369159000: system.mem_ctrls: mytrace2 totalAccess 83990652 totalHit 57004632 overflow 275 evictTime 0
2203190767000: system.mem_ctrls: mytrace writeOverhead 305826415000 swap 62691 write 3677108 1173770624
2203190767000: system.mem_ctrls: mytrace2 totalAccess 84125276 totalHit 57069780 overflow 276 evictTime 0
2210448927000: system.mem_ctrls: mytrace writeOverhead 307375450000 swap 62692 write 3690273 24364224
2210448927000: system.mem_ctrls: mytrace2 totalAccess 84463438 totalHit 57231016 overflow 280 evictTime 0
2214875160000: system.mem_ctrls: mytrace writeOverhead 308291460000 swap 62692 write 3697926 43328448
2214875160000: system.mem_ctrls: mytrace2 totalAccess 84665583 totalHit 57327264 overflow 282 evictTime 0
2217817232000: system.mem_ctrls: mytrace writeOverhead 308906775000 swap 62692 write 3703064 43555072
2217817232000: system.mem_ctrls: mytrace2 totalAccess 84800543 totalHit 57391164 overflow 283 evictTime 0
2220652126000: system.mem_ctrls: mytrace writeOverhead 309523815000 swap 62692 write 3708335 1173771072
2220652126000: system.mem_ctrls: mytrace2 totalAccess 84935361 totalHit 57455981 overflow 285 evictTime 0
2222038347000: system.mem_ctrls: mytrace writeOverhead 309829020000 swap 62693 write 3710976 25199552
2222038347000: system.mem_ctrls: mytrace2 totalAccess 85002522 totalHit 57488691 overflow 286 evictTime 0
2232226318000: system.mem_ctrls: mytrace writeOverhead 311991855000 swap 62693 write 3729018 25895616
2232226318000: system.mem_ctrls: mytrace2 totalAccess 85474789 totalHit 57711787 overflow 293 evictTime 0
2236507539000: system.mem_ctrls: mytrace writeOverhead 312921130000 swap 62693 write 3737016 1173772416
2236507539000: system.mem_ctrls: mytrace2 totalAccess 85676655 totalHit 57808471 overflow 295 evictTime 0
2237917775000: system.mem_ctrls: mytrace writeOverhead 313232845000 swap 62693 write 3739644 26352064
2237917775000: system.mem_ctrls: mytrace2 totalAccess 85744100 totalHit 57840391 overflow 296 evictTime 0
2239309215000: system.mem_ctrls: mytrace writeOverhead 313537960000 swap 62693 write 3742254 364453504
2239309215000: system.mem_ctrls: mytrace2 totalAccess 85811052 totalHit 57872517 overflow 296 evictTime 0
2245210684000: system.mem_ctrls: mytrace writeOverhead 314776330000 swap 62693 write 3752587 45681600
2245210684000: system.mem_ctrls: mytrace2 totalAccess 86081155 totalHit 58000021 overflow 300 evictTime 0
2250922011000: system.mem_ctrls: mytrace writeOverhead 316021570000 swap 62693 write 3763037 27304320
2250922011000: system.mem_ctrls: mytrace2 totalAccess 86352269 totalHit 58128051 overflow 302 evictTime 0
2252305530000: system.mem_ctrls: mytrace writeOverhead 316335410000 swap 62693 write 3765719 27473344
2252305530000: system.mem_ctrls: mytrace2 totalAccess 86420210 totalHit 58160636 overflow 304 evictTime 0
2255289979000: system.mem_ctrls: mytrace writeOverhead 316955425000 swap 62693 write 3770877 46439488
2255289979000: system.mem_ctrls: mytrace2 totalAccess 86555446 totalHit 58224069 overflow 305 evictTime 0
2256746694000: system.mem_ctrls: mytrace writeOverhead 317261725000 swap 62693 write 3773449 27718272
2256746694000: system.mem_ctrls: mytrace2 totalAccess 86622508 totalHit 58256069 overflow 307 evictTime 0
2264035489000: system.mem_ctrls: mytrace writeOverhead 318803415000 swap 62693 write 3786349 28314048
2264035489000: system.mem_ctrls: mytrace2 totalAccess 86959574 totalHit 58415294 overflow 310 evictTime 0
2274228356000: system.mem_ctrls: mytrace writeOverhead 320971950000 swap 62693 write 3804488 29031424
2274228356000: system.mem_ctrls: mytrace2 totalAccess 87431357 totalHit 58637629 overflow 315 evictTime 0
2277017293000: system.mem_ctrls: mytrace writeOverhead 321588540000 swap 62693 write 3809712 48128832
2277017293000: system.mem_ctrls: mytrace2 totalAccess 87566010 totalHit 58702143 overflow 317 evictTime 0
2278403780000: system.mem_ctrls: mytrace writeOverhead 321895950000 swap 62693 write 3812259 29449152
2278403780000: system.mem_ctrls: mytrace2 totalAccess 87633256 totalHit 58733929 overflow 318 evictTime 0
2282604202000: system.mem_ctrls: mytrace writeOverhead 322819840000 swap 62693 write 3820294 364454208
2282604202000: system.mem_ctrls: mytrace2 totalAccess 87835570 totalHit 58832213 overflow 321 evictTime 0
2284035947000: system.mem_ctrls: mytrace writeOverhead 323137820000 swap 62720 write 3822920 364455552
2284035947000: system.mem_ctrls: mytrace2 totalAccess 87903930 totalHit 58863428 overflow 321 evictTime 0
2296964211000: system.mem_ctrls: mytrace writeOverhead 326105895000 swap 64520 write 3838128 364435200
2296964211000: system.mem_ctrls: mytrace2 totalAccess 88469560 totalHit 59019350 overflow 333 evictTime 0
2307924477000: system.mem_ctrls: mytrace writeOverhead 328654995000 swap 65985 write 3851327 364443776
2307924477000: system.mem_ctrls: mytrace2 totalAccess 88954147 totalHit 59152901 overflow 342 evictTime 0
2329887214000: system.mem_ctrls: mytrace writeOverhead 333722285000 swap 68881 write 3877531 64226176
2329887214000: system.mem_ctrls: mytrace2 totalAccess 89920480 totalHit 59419673 overflow 360 evictTime 0
2333568842000: system.mem_ctrls: mytrace writeOverhead 334568555000 swap 69414 write 3881855 364449984
2333568842000: system.mem_ctrls: mytrace2 totalAccess 90082503 totalHit 59464517 overflow 361 evictTime 0
2342696738000: system.mem_ctrls: mytrace writeOverhead 336692460000 swap 70727 write 3892787 66352256
2342696738000: system.mem_ctrls: mytrace2 totalAccess 90487345 totalHit 59577029 overflow 369 evictTime 0
2344487328000: system.mem_ctrls: mytrace writeOverhead 337119575000 swap 71006 write 3895002 364443584
2344487328000: system.mem_ctrls: mytrace2 totalAccess 90568591 totalHit 59599903 overflow 372 evictTime 0
2348102545000: system.mem_ctrls: mytrace writeOverhead 337963910000 swap 71460 write 3899432 66071104
2348102545000: system.mem_ctrls: mytrace2 totalAccess 90729558 totalHit 59644597 overflow 374 evictTime 0
2357241606000: system.mem_ctrls: mytrace writeOverhead 340082650000 swap 72712 write 3910427 364446720
2357241606000: system.mem_ctrls: mytrace2 totalAccess 91133351 totalHit 59756509 overflow 380 evictTime 0
2359063725000: system.mem_ctrls: mytrace writeOverhead 340509720000 swap 72944 write 3912610 65791232
2359063725000: system.mem_ctrls: mytrace2 totalAccess 91214193 totalHit 59778443 overflow 383 evictTime 0
2372013306000: system.mem_ctrls: mytrace writeOverhead 343478485000 swap 74713 write 3927765 66643712
2372013306000: system.mem_ctrls: mytrace2 totalAccess 91780131 totalHit 59933305 overflow 392 evictTime 0
2375678134000: system.mem_ctrls: mytrace writeOverhead 344333280000 swap 75274 write 3932127 477977728
2375678134000: system.mem_ctrls: mytrace2 totalAccess 91942876 totalHit 59978428 overflow 396 evictTime 0
2382967704000: system.mem_ctrls: mytrace writeOverhead 346040465000 swap 76270 write 3940959 364449152
2382967704000: system.mem_ctrls: mytrace2 totalAccess 92267034 totalHit 60067540 overflow 401 evictTime 0
2384819363000: system.mem_ctrls: mytrace writeOverhead 346468915000 swap 76530 write 3943130 59854336
2384819363000: system.mem_ctrls: mytrace2 totalAccess 92348201 totalHit 60089675 overflow 404 evictTime 0
2386632474000: system.mem_ctrls: mytrace writeOverhead 346895430000 swap 76743 write 3945352 364438528
2386632474000: system.mem_ctrls: mytrace2 totalAccess 92428938 totalHit 60111425 overflow 404 evictTime 0
2428666168000: system.mem_ctrls: mytrace writeOverhead 356644720000 swap 82670 write 3995414 364449856
2428666168000: system.mem_ctrls: mytrace2 totalAccess 94288987 totalHit 60626200 overflow 442 evictTime 0
2443322730000: system.mem_ctrls: mytrace writeOverhead 360013745000 swap 84461 write 4012853 66522432
2443322730000: system.mem_ctrls: mytrace2 totalAccess 94931633 totalHit 60802455 overflow 453 evictTime 0
2450659515000: system.mem_ctrls: mytrace writeOverhead 361701865000 swap 85319 write 4021547 364443648
2450659515000: system.mem_ctrls: mytrace2 totalAccess 95253210 totalHit 60889621 overflow 456 evictTime 0
2452490382000: system.mem_ctrls: mytrace writeOverhead 362127605000 swap 85554 write 4023712 478141376
2452490382000: system.mem_ctrls: mytrace2 totalAccess 95334116 totalHit 60911415 overflow 457 evictTime 0
2461568378000: system.mem_ctrls: mytrace writeOverhead 364250660000 swap 86637 write 4034763 364434944
2461568378000: system.mem_ctrls: mytrace2 totalAccess 95736830 totalHit 61021481 overflow 466 evictTime 0
2476225380000: system.mem_ctrls: mytrace writeOverhead 367634385000 swap 88212 write 4052284 364443776
2476225380000: system.mem_ctrls: mytrace2 totalAccess 96379156 totalHit 61194325 overflow 476 evictTime 0
2487295133000: system.mem_ctrls: mytrace writeOverhead 370161380000 swap 89511 write 4065239 364442624
2487295133000: system.mem_ctrls: mytrace2 totalAccess 96861144 totalHit 61324900 overflow 482 evictTime 0
2490992441000: system.mem_ctrls: mytrace writeOverhead 371012910000 swap 90055 write 4069531 364435264
2490992441000: system.mem_ctrls: mytrace2 totalAccess 97023345 totalHit 61369457 overflow 487 evictTime 0
2496461586000: system.mem_ctrls: mytrace writeOverhead 372282130000 swap 90831 write 4076092 66678976
2496461586000: system.mem_ctrls: mytrace2 totalAccess 97265718 totalHit 61437120 overflow 491 evictTime 0
2509177901000: system.mem_ctrls: mytrace writeOverhead 375247020000 swap 92513 write 4091454 364446848
2509177901000: system.mem_ctrls: mytrace2 totalAccess 97830548 totalHit 61593096 overflow 502 evictTime 0
2511059506000: system.mem_ctrls: mytrace writeOverhead 375673725000 swap 92776 write 4093624 483393536
2511059506000: system.mem_ctrls: mytrace2 totalAccess 97911640 totalHit 61615188 overflow 504 evictTime 0
2516553100000: system.mem_ctrls: mytrace writeOverhead 376942265000 swap 93571 write 4100139 364442304
2516553100000: system.mem_ctrls: mytrace2 totalAccess 98154267 totalHit 61682712 overflow 508 evictTime 0
2520291355000: system.mem_ctrls: mytrace writeOverhead 377786670000 swap 94018 write 4104413 482122816
2520291355000: system.mem_ctrls: mytrace2 totalAccess 98315205 totalHit 61725965 overflow 511 evictTime 0
2522150592000: system.mem_ctrls: mytrace writeOverhead 378208025000 swap 94289 write 4106576 66261760
2522150592000: system.mem_ctrls: mytrace2 totalAccess 98395996 totalHit 61748517 overflow 512 evictTime 0
2542765900000: system.mem_ctrls: mytrace writeOverhead 384129025000 swap 95110 write 4140524 47097088
2542765900000: system.mem_ctrls: mytrace2 totalAccess 99456501 totalHit 62014758 overflow 520 evictTime 0
2553218165000: system.mem_ctrls: mytrace writeOverhead 387357565000 swap 95110 write 4159569 41158656
2553218165000: system.mem_ctrls: mytrace2 totalAccess 100026276 totalHit 62155102 overflow 526 evictTime 0
2556199912000: system.mem_ctrls: mytrace writeOverhead 388283925000 swap 95110 write 4165054 27433216
2556199912000: system.mem_ctrls: mytrace2 totalAccess 100189483 totalHit 62195168 overflow 527 evictTime 0
2559232088000: system.mem_ctrls: mytrace writeOverhead 389202925000 swap 95110 write 4170365 364452096
2559232088000: system.mem_ctrls: mytrace2 totalAccess 100352112 totalHit 62234226 overflow 527 evictTime 0
2565262646000: system.mem_ctrls: mytrace writeOverhead 391053385000 swap 95110 write 4181255 27154432
2565262646000: system.mem_ctrls: mytrace2 totalAccess 100678244 totalHit 62313937 overflow 531 evictTime 0
2566757073000: system.mem_ctrls: mytrace writeOverhead 391511195000 swap 95110 write 4183933 24749568
2566757073000: system.mem_ctrls: mytrace2 totalAccess 100759388 totalHit 62333916 overflow 532 evictTime 0
2569752100000: system.mem_ctrls: mytrace writeOverhead 392436020000 swap 95110 write 4189415 26024448
2569752100000: system.mem_ctrls: mytrace2 totalAccess 100922442 totalHit 62374080 overflow 533 evictTime 0
2572719711000: system.mem_ctrls: mytrace writeOverhead 393363075000 swap 95110 write 4194965 47393984
2572719711000: system.mem_ctrls: mytrace2 totalAccess 101085603 totalHit 62414661 overflow 534 evictTime 0
2575757233000: system.mem_ctrls: mytrace writeOverhead 394286465000 swap 95110 write 4200285 364456512
2575757233000: system.mem_ctrls: mytrace2 totalAccess 101248658 totalHit 62453625 overflow 535 evictTime 0
2580273367000: system.mem_ctrls: mytrace writeOverhead 395679845000 swap 95110 write 4208471 22916288
2580273367000: system.mem_ctrls: mytrace2 totalAccess 101493860 totalHit 62513103 overflow 537 evictTime 0
2583338360000: system.mem_ctrls: mytrace writeOverhead 396609720000 swap 95110 write 4213879 26455360
2583338360000: system.mem_ctrls: mytrace2 totalAccess 101657355 totalHit 62552167 overflow 539 evictTime 0
2584855091000: system.mem_ctrls: mytrace writeOverhead 397074020000 swap 95110 write 4216607 1173770880
2584855091000: system.mem_ctrls: mytrace2 totalAccess 101739197 totalHit 62571914 overflow 539 evictTime 0
2587855269000: system.mem_ctrls: mytrace writeOverhead 397999170000 swap 95110 write 4222142 46835200
2587855269000: system.mem_ctrls: mytrace2 totalAccess 101902239 totalHit 62612445 overflow 540 evictTime 0
2596813943000: system.mem_ctrls: mytrace writeOverhead 400772045000 swap 95110 write 4238541 25895616
2596813943000: system.mem_ctrls: mytrace2 totalAccess 102390908 totalHit 62732640 overflow 544 evictTime 0
2598288481000: system.mem_ctrls: mytrace writeOverhead 401227045000 swap 95110 write 4241223 25188928
2598288481000: system.mem_ctrls: mytrace2 totalAccess 102471809 totalHit 62752771 overflow 544 evictTime 0
2604353939000: system.mem_ctrls: mytrace writeOverhead 403082290000 swap 95110 write 4252065 21512128
2604353939000: system.mem_ctrls: mytrace2 totalAccess 102798531 totalHit 62831668 overflow 547 evictTime 0
2626758735000: system.mem_ctrls: mytrace writeOverhead 410014150000 swap 95110 write 4292842 26051072
2626758735000: system.mem_ctrls: mytrace2 totalAccess 104021311 totalHit 63130799 overflow 556 evictTime 0
2635843048000: system.mem_ctrls: mytrace writeOverhead 412794245000 swap 95110 write 4309146 40631040
2635843048000: system.mem_ctrls: mytrace2 totalAccess 104511154 totalHit 63249379 overflow 559 evictTime 0
2638843933000: system.mem_ctrls: mytrace writeOverhead 413715540000 swap 95110 write 4314527 364456576
2638843933000: system.mem_ctrls: mytrace2 totalAccess 104673851 totalHit 63288896 overflow 560 evictTime 0
2641827223000: system.mem_ctrls: mytrace writeOverhead 414644110000 swap 95110 write 4320069 24218688
2641827223000: system.mem_ctrls: mytrace2 totalAccess 104837209 totalHit 63329282 overflow 561 evictTime 0
2643322314000: system.mem_ctrls: mytrace writeOverhead 415101620000 swap 95110 write 4322774 44314240
2643322314000: system.mem_ctrls: mytrace2 totalAccess 104918345 totalHit 63349522 overflow 562 evictTime 0
2644834235000: system.mem_ctrls: mytrace writeOverhead 415568295000 swap 95110 write 4325525 23229312
2644834235000: system.mem_ctrls: mytrace2 totalAccess 105000120 totalHit 63369377 overflow 563 evictTime 0
2652324904000: system.mem_ctrls: mytrace writeOverhead 417880390000 swap 95110 write 4339104 24365312
2652324904000: system.mem_ctrls: mytrace2 totalAccess 105407833 totalHit 63468741 overflow 566 evictTime 0
2671893182000: system.mem_ctrls: mytrace writeOverhead 423873145000 swap 95110 write 4374371 26072256
2671893182000: system.mem_ctrls: mytrace2 totalAccess 106466150 totalHit 63728302 overflow 574 evictTime 0
2677631941000: system.mem_ctrls: mytrace writeOverhead 425414880000 swap 95272 write 4385568 364436096
2677631941000: system.mem_ctrls: mytrace2 totalAccess 106766118 totalHit 63840896 overflow 579 evictTime 0
2681713342000: system.mem_ctrls: mytrace writeOverhead 426330550000 swap 95506 write 4394276 58707456
2681713342000: system.mem_ctrls: mytrace2 totalAccess 106970764 totalHit 63950752 overflow 582 evictTime 0
2683016698000: system.mem_ctrls: mytrace writeOverhead 426632380000 swap 95580 write 4397144 364442816
2683016698000: system.mem_ctrls: mytrace2 totalAccess 107038322 totalHit 63987409 overflow 585 evictTime 0
2687302694000: system.mem_ctrls: mytrace writeOverhead 427535120000 swap 95626 write 4405478 59014720
2687302694000: system.mem_ctrls: mytrace2 totalAccess 107240230 totalHit 64091977 overflow 585 evictTime 0
2688815487000: system.mem_ctrls: mytrace writeOverhead 427834080000 swap 95626 write 4408140 364445504
2688815487000: system.mem_ctrls: mytrace2 totalAccess 107307374 totalHit 64125966 overflow 585 evictTime 0
2691486968000: system.mem_ctrls: mytrace writeOverhead 428439030000 swap 95626 write 4413846 478148224
2691486968000: system.mem_ctrls: mytrace2 totalAccess 107441824 totalHit 64196686 overflow 588 evictTime 0
2694211003000: system.mem_ctrls: mytrace writeOverhead 429032065000 swap 95626 write 4419472 364438464
2694211003000: system.mem_ctrls: mytrace2 totalAccess 107575377 totalHit 64267344 overflow 589 evictTime 0
2698197994000: system.mem_ctrls: mytrace writeOverhead 429922220000 swap 95626 write 4428064 59454016
2698197994000: system.mem_ctrls: mytrace2 totalAccess 107775520 totalHit 64374431 overflow 592 evictTime 0
2700847591000: system.mem_ctrls: mytrace writeOverhead 430519860000 swap 95626 write 4433831 364452096
2700847591000: system.mem_ctrls: mytrace2 totalAccess 107909459 totalHit 64445932 overflow 594 evictTime 0
2703377819000: system.mem_ctrls: mytrace writeOverhead 431112605000 swap 95626 write 4439852 364439552
2703377819000: system.mem_ctrls: mytrace2 totalAccess 108042858 totalHit 64519778 overflow 596 evictTime 0
2708717531000: system.mem_ctrls: mytrace writeOverhead 432296020000 swap 95626 write 4451402 364447616
2708717531000: system.mem_ctrls: mytrace2 totalAccess 108309804 totalHit 64664100 overflow 600 evictTime 0
2710186674000: system.mem_ctrls: mytrace writeOverhead 432594090000 swap 95626 write 4454190 59864960
2710186674000: system.mem_ctrls: mytrace2 totalAccess 108376796 totalHit 64699207 overflow 601 evictTime 0
2718578160000: system.mem_ctrls: mytrace writeOverhead 434390310000 swap 95626 write 4471106 60160960
2718578160000: system.mem_ctrls: mytrace2 totalAccess 108779044 totalHit 64910303 overflow 605 evictTime 0
2719941854000: system.mem_ctrls: mytrace writeOverhead 434688345000 swap 95626 write 4473940 479385280
2719941854000: system.mem_ctrls: mytrace2 totalAccess 108846025 totalHit 64945684 overflow 605 evictTime 0
2724129657000: system.mem_ctrls: mytrace writeOverhead 435586080000 swap 95626 write 4482439 364450304
2724129657000: system.mem_ctrls: mytrace2 totalAccess 109047093 totalHit 65051804 overflow 609 evictTime 0
2726907742000: system.mem_ctrls: mytrace writeOverhead 436180555000 swap 95626 write 4488097 364448064
2726907742000: system.mem_ctrls: mytrace2 totalAccess 109180822 totalHit 65122515 overflow 609 evictTime 0
2728168320000: system.mem_ctrls: mytrace writeOverhead 436475915000 swap 95626 write 4491040 364446720
2728168320000: system.mem_ctrls: mytrace2 totalAccess 109247371 totalHit 65158964 overflow 610 evictTime 0
[...]
130549993009000: system.mem_ctrls: mytrace2 totalAccess 4589512815 totalHit 2483464579 overflow 116446 evictTime 0
130552624087000: system.mem_ctrls: mytrace writeOverhead 19685464810000 swap 6050579 write 182079034 199999424
130552624087000: system.mem_ctrls: mytrace2 totalAccess 4589583725 totalHit 2483496130 overflow 116446 evictTime 0
130562736006000: system.mem_ctrls: mytrace writeOverhead 19686355910000 swap 6050755 write 182085403 372246080
130562736006000: system.mem_ctrls: mytrace2 totalAccess 4589787358 totalHit 2483587285 overflow 116447 evictTime 0
130568547177000: system.mem_ctrls: mytrace writeOverhead 19686944110000 swap 6050774 write 182090073 199216256
130568547177000: system.mem_ctrls: mytrace2 totalAccess 4589920468 totalHit 2483651796 overflow 116448 evictTime 0
130571763445000: system.mem_ctrls: mytrace writeOverhead 19687242935000 swap 6050951 write 182092289 366930432
130571763445000: system.mem_ctrls: mytrace2 totalAccess 4589989118 totalHit 2483684973 overflow 116448 evictTime 0
130578632459000: system.mem_ctrls: mytrace writeOverhead 19687781060000 swap 6050972 write 182096121 219552448
130578632459000: system.mem_ctrls: mytrace2 totalAccess 4590119073 totalHit 2483746063 overflow 116448 evictTime 0
130580006992000: system.mem_ctrls: mytrace writeOverhead 19688105820000 swap 6051032 write 182099682 200766848
130580006992000: system.mem_ctrls: mytrace2 totalAccess 4590188669 totalHit 2483786061 overflow 116450 evictTime 0
130592470112000: system.mem_ctrls: mytrace writeOverhead 19690343875000 swap 6051330 write 182122317 458761856
130592470112000: system.mem_ctrls: mytrace2 totalAccess 4590713100 totalHit 2484086864 overflow 116454 evictTime 0
130598734049000: system.mem_ctrls: mytrace writeOverhead 19691441440000 swap 6051459 write 182133382 1173789568
130598734049000: system.mem_ctrls: mytrace2 totalAccess 4590973444 totalHit 2484236972 overflow 116457 evictTime 0

 terminating on cycle limit
 tlim= 1.00000E-01   nlim=     30  cpulim= 1.00000E+05
 time= 1.05914E-03  cycle=     30   tused= 0.00000E+00
130604575399000: system.mem_ctrls: mytrace writeOverhead 19692796240000 swap 6051905 write 182147014 249108416
130604575399000: system.mem_ctrls: mytrace2 totalAccess 4591300925 totalHit 2484428690 overflow 116458 evictTime 0
130605925380000: system.mem_ctrls: mytrace writeOverhead 19693009610000 swap 6051905 write 182148865 268095808
130605925380000: system.mem_ctrls: mytrace2 totalAccess 4591360991 totalHit 2484463419 overflow 116458 evictTime 0
130611334588000: system.mem_ctrls: mytrace writeOverhead 19693898070000 swap 6051918 write 182156289 268694528
130611334588000: system.mem_ctrls: mytrace2 totalAccess 4591604349 totalHit 2484599721 overflow 116458 evictTime 0
130612679769000: system.mem_ctrls: mytrace writeOverhead 19694106260000 swap 6051918 write 182158143 268918272
130612679769000: system.mem_ctrls: mytrace2 totalAccess 4591663981 totalHit 2484634908 overflow 116458 evictTime 0
130614026563000: system.mem_ctrls: mytrace writeOverhead 19694308275000 swap 6051918 write 182160003 269068224
130614026563000: system.mem_ctrls: mytrace2 totalAccess 4591723009 totalHit 2484670744 overflow 116458 evictTime 0
130631851797000: system.mem_ctrls: mytrace writeOverhead 19697668040000 swap 6052610 write 182187142 270819520
130631851797000: system.mem_ctrls: mytrace2 totalAccess 4592602621 totalHit 2485144725 overflow 116459 evictTime 0
130634541996000: system.mem_ctrls: mytrace writeOverhead 19698076590000 swap 6052619 write 182190853 271194944
130634541996000: system.mem_ctrls: mytrace2 totalAccess 4592721195 totalHit 2485216033 overflow 116459 evictTime 0
130638595574000: system.mem_ctrls: mytrace writeOverhead 19698711090000 swap 6052631 write 182196418 252817792
130638595574000: system.mem_ctrls: mytrace2 totalAccess 4592900962 totalHit 2485321032 overflow 116459 evictTime 0
130646704375000: system.mem_ctrls: mytrace writeOverhead 19700029955000 swap 6052960 write 182207559 272607168
130646704375000: system.mem_ctrls: mytrace2 totalAccess 4593267504 totalHit 2485531450 overflow 116459 evictTime 0
130650786538000: system.mem_ctrls: mytrace writeOverhead 19700731420000 swap 6054143 write 182213123 235406528
130650786538000: system.mem_ctrls: mytrace2 totalAccess 4593463077 totalHit 2485648753 overflow 116459 evictTime 0
130663995695000: system.mem_ctrls: mytrace writeOverhead 19702888580000 swap 6054230 write 182232672 236809664
130663995695000: system.mem_ctrls: mytrace2 totalAccess 4594066387 totalHit 2486003801 overflow 116459 evictTime 0
130673459199000: system.mem_ctrls: mytrace writeOverhead 19704410085000 swap 6054651 write 182245649 275485056
130673459199000: system.mem_ctrls: mytrace2 totalAccess 4594492613 totalHit 2486251427 overflow 116461 evictTime 0
130681553144000: system.mem_ctrls: mytrace writeOverhead 19705704620000 swap 6054674 write 182256803 229746688
130681553144000: system.mem_ctrls: mytrace2 totalAccess 4594854450 totalHit 2486459320 overflow 116461 evictTime 0
130806943478000: system.mem_ctrls: mytrace writeOverhead 19708178435000 swap 6054688 write 182266540 477926848
130806943478000: system.mem_ctrls: mytrace2 totalAccess 4596739627 totalHit 2487932355 overflow 116461 evictTime 0
130823254968000: system.mem_ctrls: mytrace writeOverhead 19710142915000 swap 6054691 write 182303111 367749696
130823254968000: system.mem_ctrls: mytrace2 totalAccess 4597689074 totalHit 2488795522 overflow 116464 evictTime 0
130825288416000: system.mem_ctrls: mytrace writeOverhead 19710550180000 swap 6054692 write 182310620 369601984
130825288416000: system.mem_ctrls: mytrace2 totalAccess 4597848221 totalHit 2488936460 overflow 116464 evictTime 0
130828679545000: system.mem_ctrls: mytrace writeOverhead 19711228215000 swap 6054692 write 182323108 372714368
130828679545000: system.mem_ctrls: mytrace2 totalAccess 4598113338 totalHit 2489171231 overflow 116465 evictTime 0
130830047989000: system.mem_ctrls: mytrace writeOverhead 19711503075000 swap 6054692 write 182328265 477435520
130830047989000: system.mem_ctrls: mytrace2 totalAccess 4598219776 totalHit 2489266041 overflow 116465 evictTime 0
130830727343000: system.mem_ctrls: mytrace writeOverhead 19711662590000 swap 6054692 write 182331480 477657728
130830727343000: system.mem_ctrls: mytrace2 totalAccess 4598275160 totalHit 2489316368 overflow 116465 evictTime 0
130833442365000: system.mem_ctrls: mytrace writeOverhead 19712300515000 swap 6054692 write 182344343 478473728
130833442365000: system.mem_ctrls: mytrace2 totalAccess 4598496573 totalHit 2489517842 overflow 116467 evictTime 0
130834129027000: system.mem_ctrls: mytrace writeOverhead 19712458505000 swap 6054692 write 182347543 478686976
130834129027000: system.mem_ctrls: mytrace2 totalAccess 4598551837 totalHit 2489568168 overflow 116467 evictTime 0
130836173890000: system.mem_ctrls: mytrace writeOverhead 19712939270000 swap 6054692 write 182357196 479303488
130836173890000: system.mem_ctrls: mytrace2 totalAccess 4598717965 totalHit 2489719246 overflow 116470 evictTime 0
130847238829000: system.mem_ctrls: mytrace writeOverhead 19713792150000 swap 6054692 write 182372014 367147328
130847238829000: system.mem_ctrls: mytrace2 totalAccess 4599239981 totalHit 2490195763 overflow 116472 evictTime 0
130847963240000: system.mem_ctrls: mytrace writeOverhead 19713965040000 swap 6054692 write 182375346 367870912
130847963240000: system.mem_ctrls: mytrace2 totalAccess 4599296448 totalHit 2490245940 overflow 116473 evictTime 0
130850142184000: system.mem_ctrls: mytrace writeOverhead 19714481500000 swap 6054692 write 182385339 370045568
130850142184000: system.mem_ctrls: mytrace2 totalAccess 4599465896 totalHit 2490396420 overflow 116473 evictTime 0
130853772953000: system.mem_ctrls: mytrace writeOverhead 19715341500000 swap 6054692 write 182402002 373801472
130853772953000: system.mem_ctrls: mytrace2 totalAccess 4599748265 totalHit 2490647336 overflow 116473 evictTime 0
130854473724000: system.mem_ctrls: mytrace writeOverhead 19715502180000 swap 6054692 write 182405178 477500352
130854473724000: system.mem_ctrls: mytrace2 totalAccess 4599803712 totalHit 2490697289 overflow 116473 evictTime 0
130860598219000: system.mem_ctrls: mytrace writeOverhead 19716936195000 swap 6054692 write 182434104 479352000
130860598219000: system.mem_ctrls: mytrace2 totalAccess 4600301890 totalHit 2491150489 overflow 116476 evictTime 0
130869458764000: system.mem_ctrls: mytrace writeOverhead 19717259200000 swap 6054693 write 182438762 477551104
130869458764000: system.mem_ctrls: mytrace2 totalAccess 4600653413 totalHit 2491476246 overflow 116476 evictTime 0
130872864614000: system.mem_ctrls: mytrace writeOverhead 19718058460000 swap 6054694 write 182454823 478598016
130872864614000: system.mem_ctrls: mytrace2 totalAccess 4600930213 totalHit 2491727939 overflow 116480 evictTime 0
130874224399000: system.mem_ctrls: mytrace writeOverhead 19718376615000 swap 6054694 write 182461261 479003328
130874224399000: system.mem_ctrls: mytrace2 totalAccess 4601040940 totalHit 2491828706 overflow 116480 evictTime 0
130874911781000: system.mem_ctrls: mytrace writeOverhead 19718535270000 swap 6054694 write 182464462 479197952
130874911781000: system.mem_ctrls: mytrace2 totalAccess 4601096252 totalHit 2491878991 overflow 116480 evictTime 0
130875594254000: system.mem_ctrls: mytrace writeOverhead 19718695150000 swap 6054694 write 182467674 479401664
130875594254000: system.mem_ctrls: mytrace2 totalAccess 4601151592 totalHit 2491929339 overflow 116481 evictTime 0
130884399251000: system.mem_ctrls: mytrace writeOverhead 19719032235000 swap 6054694 write 182472646 477655104
130884399251000: system.mem_ctrls: mytrace2 totalAccess 4601504464 totalHit 2492256232 overflow 116481 evictTime 0
130885755765000: system.mem_ctrls: mytrace writeOverhead 19719350715000 swap 6054694 write 182479080 478066368
130885755765000: system.mem_ctrls: mytrace2 totalAccess 4601615206 totalHit 2492356948 overflow 116481 evictTime 0
130889822902000: system.mem_ctrls: mytrace writeOverhead 19720305585000 swap 6054694 write 182498365 479292096
130889822902000: system.mem_ctrls: mytrace2 totalAccess 4601947380 totalHit 2492659037 overflow 116481 evictTime 0
130901364769000: system.mem_ctrls: mytrace writeOverhead 19721283645000 swap 6054697 write 182516218 478376448
130901364769000: system.mem_ctrls: mytrace2 totalAccess 4602521799 totalHit 2493187496 overflow 116485 evictTime 0
130902044276000: system.mem_ctrls: mytrace writeOverhead 19721443865000 swap 6054697 write 182519431 478582144
130902044276000: system.mem_ctrls: mytrace2 totalAccess 4602577165 totalHit 2493237824 overflow 116486 evictTime 0
130903399696000: system.mem_ctrls: mytrace writeOverhead 19721763630000 swap 6054697 write 182525857 478960896
130903399696000: system.mem_ctrls: mytrace2 totalAccess 4602687854 totalHit 2493338534 overflow 116488 evictTime 0
130904756347000: system.mem_ctrls: mytrace writeOverhead 19722082770000 swap 6054697 write 182532295 479416256
130904756347000: system.mem_ctrls: mytrace2 totalAccess 4602798643 totalHit 2493439232 overflow 116488 evictTime 0
130918967732000: system.mem_ctrls: mytrace writeOverhead 19722857130000 swap 6054698 write 182543528 367327296
130918967732000: system.mem_ctrls: mytrace2 totalAccess 4603392982 totalHit 2493974749 overflow 116491 evictTime 0
130934718121000: system.mem_ctrls: mytrace writeOverhead 19724553765000 swap 6054702 write 182570657 477464960
130934718121000: system.mem_ctrls: mytrace2 totalAccess 4604191222 totalHit 2494673593 overflow 116538 evictTime 0
130935398685000: system.mem_ctrls: mytrace writeOverhead 19724712770000 swap 6054702 write 182573874 477675008
130935398685000: system.mem_ctrls: mytrace2 totalAccess 4604246575 totalHit 2494723967 overflow 116538 evictTime 0
130937438869000: system.mem_ctrls: mytrace writeOverhead 19725190225000 swap 6054702 write 182583508 478288704
130937438869000: system.mem_ctrls: mytrace2 totalAccess 4604412581 totalHit 2494875018 overflow 116539 evictTime 0
130940165687000: system.mem_ctrls: mytrace writeOverhead 19725829655000 swap 6054702 write 182596371 479114112
130940165687000: system.mem_ctrls: mytrace2 totalAccess 4604634038 totalHit 2495076448 overflow 116542 evictTime 0
130940844909000: system.mem_ctrls: mytrace writeOverhead 19725989925000 swap 6054702 write 182599598 479325952
130940844909000: system.mem_ctrls: mytrace2 totalAccess 4604689422 totalHit 2495126869 overflow 116543 evictTime 0
130949704402000: system.mem_ctrls: mytrace writeOverhead 19726312685000 swap 6054703 write 182604250 477515456
130949704402000: system.mem_ctrls: mytrace2 totalAccess 4605040914 totalHit 2495452599 overflow 116543 evictTime 0
130950381796000: system.mem_ctrls: mytrace writeOverhead 19726480180000 swap 6054703 write 182607458 477721152
130950381796000: system.mem_ctrls: mytrace2 totalAccess 4605096249 totalHit 2495502919 overflow 116552 evictTime 0
130951744222000: system.mem_ctrls: mytrace writeOverhead 19726797995000 swap 6054703 write 182613868 478132800
130951744222000: system.mem_ctrls: mytrace2 totalAccess 4605206925 totalHit 2495603512 overflow 116552 evictTime 0
130952422324000: system.mem_ctrls: mytrace writeOverhead 19726957010000 swap 6054703 write 182617078 478338496
130952422324000: system.mem_ctrls: mytrace2 totalAccess 4605262268 totalHit 2495653839 overflow 116552 evictTime 0
130955832461000: system.mem_ctrls: mytrace writeOverhead 19727757250000 swap 6054704 write 182633162 479370688
130955832461000: system.mem_ctrls: mytrace2 totalAccess 4605539307 totalHit 2495905479 overflow 116554 evictTime 0
130963964003000: system.mem_ctrls: mytrace writeOverhead 19727935440000 swap 6054705 write 182634918 477413696
130963964003000: system.mem_ctrls: mytrace2 totalAccess 4605836843 totalHit 2496182007 overflow 116554 evictTime 0
130969394404000: system.mem_ctrls: mytrace writeOverhead 19729216655000 swap 6054705 write 182660626 479059712
130969394404000: system.mem_ctrls: mytrace2 totalAccess 4606279849 totalHit 2496584639 overflow 116561 evictTime 0
130970071990000: system.mem_ctrls: mytrace writeOverhead 19729376350000 swap 6054705 write 182663844 479278656
130970071990000: system.mem_ctrls: mytrace2 totalAccess 4606335251 totalHit 2496634972 overflow 116561 evictTime 0
130980925176000: system.mem_ctrls: mytrace writeOverhead 19730198370000 swap 6054707 write 182678485 478145536
130980925176000: system.mem_ctrls: mytrace2 totalAccess 4606854403 totalHit 2497112975 overflow 116567 evictTime 0
130994321155000: system.mem_ctrls: mytrace writeOverhead 19731428810000 swap 6054708 write 182700969 364889152
130994321155000: system.mem_ctrls: mytrace2 totalAccess 4607533060 totalHit 2497734187 overflow 116571 evictTime 0
131000849631000: system.mem_ctrls: mytrace writeOverhead 19732038130000 swap 6054708 write 182710931 367040064
131000849631000: system.mem_ctrls: mytrace2 totalAccess 4607831072 totalHit 2497995851 overflow 116574 evictTime 0
131005192757000: system.mem_ctrls: mytrace writeOverhead 19732449290000 swap 6054708 write 182717569 368568576
131005192757000: system.mem_ctrls: mytrace2 totalAccess 4608029765 totalHit 2498170248 overflow 116581 evictTime 0
131006282971000: system.mem_ctrls: mytrace writeOverhead 19732551995000 swap 6054708 write 182719233 368879744
131006282971000: system.mem_ctrls: mytrace2 totalAccess 4608079406 totalHit 2498213910 overflow 116583 evictTime 0
131008455168000: system.mem_ctrls: mytrace writeOverhead 19732755925000 swap 6054708 write 182722562 369620288
131008455168000: system.mem_ctrls: mytrace2 totalAccess 4608178819 totalHit 2498301115 overflow 116584 evictTime 0
131016062836000: system.mem_ctrls: mytrace writeOverhead 19733475205000 swap 6054708 write 182734174 372247872
131016062836000: system.mem_ctrls: mytrace2 totalAccess 4608526512 totalHit 2498606298 overflow 116596 evictTime 0
131019324631000: system.mem_ctrls: mytrace writeOverhead 19733780600000 swap 6054708 write 182739164 373280192
131019324631000: system.mem_ctrls: mytrace2 totalAccess 4608675459 totalHit 2498737257 overflow 116599 evictTime 0
131021456725000: system.mem_ctrls: mytrace writeOverhead 19733987745000 swap 6054708 write 182742531 477400256
131021456725000: system.mem_ctrls: mytrace2 totalAccess 4608774986 totalHit 2498824651 overflow 116602 evictTime 0
131024857258000: system.mem_ctrls: mytrace writeOverhead 19734780710000 swap 6054708 write 182758539 478417344
131024857258000: system.mem_ctrls: mytrace2 totalAccess 4609051466 totalHit 2499076216 overflow 116603 evictTime 0
131025536997000: system.mem_ctrls: mytrace writeOverhead 19734940995000 swap 6054708 write 182761760 478629824
131025536997000: system.mem_ctrls: mytrace2 totalAccess 4609106848 totalHit 2499126592 overflow 116604 evictTime 0
131027587896000: system.mem_ctrls: mytrace writeOverhead 19735418075000 swap 6054708 write 182771400 479236672
131027587896000: system.mem_ctrls: mytrace2 totalAccess 4609272904 totalHit 2499277639 overflow 116604 evictTime 0
131036656868000: system.mem_ctrls: mytrace writeOverhead 19735728525000 swap 6054708 write 182775677 364493888
131036656868000: system.mem_ctrls: mytrace2 totalAccess 4609623179 totalHit 2499601571 overflow 116604 evictTime 0
131037961090000: system.mem_ctrls: mytrace writeOverhead 19735832330000 swap 6054708 write 182777336 364905344
131037961090000: system.mem_ctrls: mytrace2 totalAccess 4609673100 totalHit 2499644913 overflow 116604 evictTime 0
131049680055000: system.mem_ctrls: mytrace writeOverhead 19736848220000 swap 6054708 write 182792169 368160448
131049680055000: system.mem_ctrls: mytrace2 totalAccess 4610122030 totalHit 2500034629 overflow 116693 evictTime 0
131065307606000: system.mem_ctrls: mytrace writeOverhead 19738143095000 swap 6054708 write 182811946 372552448
131065307606000: system.mem_ctrls: mytrace2 totalAccess 4610720604 totalHit 2500554239 overflow 116750 evictTime 0
131067910398000: system.mem_ctrls: mytrace writeOverhead 19738362010000 swap 6054708 write 182815267 373264448
131067910398000: system.mem_ctrls: mytrace2 totalAccess 4610820415 totalHit 2500640983 overflow 116762 evictTime 0
131070499026000: system.mem_ctrls: mytrace writeOverhead 19738569005000 swap 6054708 write 182818531 373985792
131070499026000: system.mem_ctrls: mytrace2 totalAccess 4610920046 totalHit 2500727450 overflow 116764 evictTime 0
131102290348000: system.mem_ctrls: mytrace writeOverhead 19741089735000 swap 6054708 write 182855762 477434560
131102290348000: system.mem_ctrls: mytrace2 totalAccess 4612193436 totalHit 2501831847 overflow 116837 evictTime 0
131104327753000: system.mem_ctrls: mytrace writeOverhead 19741568015000 swap 6054708 write 182865364 478046848
131104327753000: system.mem_ctrls: mytrace2 totalAccess 4612359477 totalHit 2501982612 overflow 116838 evictTime 0
131105690996000: system.mem_ctrls: mytrace writeOverhead 19741888215000 swap 6054708 write 182871792 478463168
131105690996000: system.mem_ctrls: mytrace2 totalAccess 4612470270 totalHit 2502083230 overflow 116839 evictTime 0
131106366910000: system.mem_ctrls: mytrace writeOverhead 19742048560000 swap 6054708 write 182875033 478676928
131106366910000: system.mem_ctrls: mytrace2 totalAccess 4612525745 totalHit 2502133673 overflow 116839 evictTime 0
131107050395000: system.mem_ctrls: mytrace writeOverhead 19742207175000 swap 6054708 write 182878218 478868416
131107050395000: system.mem_ctrls: mytrace2 totalAccess 4612581036 totalHit 2502183853 overflow 116839 evictTime 0
131108422874000: system.mem_ctrls: mytrace writeOverhead 19742527065000 swap 6054708 write 182884684 479261760
131108422874000: system.mem_ctrls: mytrace2 totalAccess 4612691914 totalHit 2502284691 overflow 116839 evictTime 0
131116279016000: system.mem_ctrls: mytrace writeOverhead 19742973675000 swap 6054708 write 182890134 1081728
131116279016000: system.mem_ctrls: mytrace2 totalAccess 4613010262 totalHit 2502567976 overflow 116866 evictTime 0
Exiting @ tick 131117178434000 because exiting with last active thread context
